REMARK  Name = g11_out.pdbqt
REMARK  2 active torsions:
REMARK  status: ('A' for Active; 'I' for Inactive)
REMARK    1  A    between atoms: C10_10  and  C12_11
REMARK    2  A    between atoms: C12_11  and  N1_13
REMARK                            x       y       z     vdW  Elec       q    Type
REMARK                         _______ _______ _______ _____ _____    ______ ____
ROOT
ATOM      1  C1  UNL d   1       6.617  24.987  27.398  0.00  0.00    +0.009 C 
ATOM      2  C2  UNL d   1       6.969  27.432  26.964  0.00  0.00    +0.009 C 
ATOM      3  C3  UNL d   1       4.826  26.636  27.995  0.00  0.00    +0.009 C 
ATOM      4  C4  UNL d   1       6.634  25.853  25.044  0.00  0.00    +0.016 C 
ATOM      5  C5  UNL d   1       4.486  25.056  26.077  0.00  0.00    +0.016 C 
ATOM      6  C6  UNL d   1       4.839  27.506  25.643  0.00  0.00    +0.016 C 
ATOM      7  C7  UNL d   1       7.252  26.012  26.444  0.00  0.00    -0.013 C 
ATOM      8  C8  UNL d   1       5.098  25.214  27.480  0.00  0.00    -0.013 C 
ATOM      9  C9  UNL d   1       5.452  27.671  27.044  0.00  0.00    -0.013 C 
ATOM     10  C10 UNL d   1       5.105  26.083  25.100  0.00  0.00    -0.020 C 
ENDROOT
BRANCH  10  11
ATOM     11  C12 UNL d   1       4.493  25.923  23.704  0.00  0.00    +0.078 C 
ATOM     12  C11 UNL d   1       2.995  25.694  23.779  0.00  0.00    +0.032 C 
BRANCH  11  13
ATOM     13  N1  UNL d   1       5.131  24.767  23.035  0.00  0.00    -0.426 NA
ATOM     14  H20 UNL d   1       6.017  24.918  22.624  0.00  0.00    +0.150 HD
ATOM     15  H21 UNL d   1       4.560  23.980  22.858  0.00  0.00    +0.150 HD
ENDBRANCH  11  13
ENDBRANCH  10  11
TORSDOF 2
