REMARK  Name = CPZ_out.pdbqt
REMARK  4 active torsions:
REMARK  status: ('A' for Active; 'I' for Inactive)
REMARK    1  A    between atoms: N1_13  and  C16_16
REMARK    2  A    between atoms: C16_16  and  C15_17
REMARK    3  A    between atoms: C15_17  and  C17_18
REMARK    4  A    between atoms: C17_18  and  N2_19
REMARK                            x       y       z     vdW  Elec       q    Type
REMARK                         _______ _______ _______ _____ _____    ______ ____
ROOT
ATOM      1  C1  UNL d   1      16.438   1.574   2.402  0.00  0.00    +0.002 C 
ATOM      2  C2  UNL d   1      15.892   2.636   1.698  0.00  0.00    +0.002 C 
ATOM      3  C3  UNL d   1      16.003   0.271   2.149  0.00  0.00    +0.031 C 
ATOM      4  C4  UNL d   1      14.916   2.392   0.737  0.00  0.00    +0.021 C 
ATOM      5  C5  UNL d   1      12.717  -1.276  -2.332  0.00  0.00    +0.023 C 
ATOM      6  C6  UNL d   1      12.742  -2.618  -2.698  0.00  0.00    +0.025 C 
ATOM      7  C7  UNL d   1      13.973  -3.117  -0.686  0.00  0.00    +0.054 C 
ATOM      8  C8  UNL d   1      15.006  -0.012   1.190  0.00  0.00    +0.052 C 
ATOM      9  C9  UNL d   1      13.955  -1.766  -0.277  0.00  0.00    +0.053 C 
ATOM     10  C10 UNL d   1      14.478   1.081   0.475  0.00  0.00    +0.032 C 
ATOM     11  C11 UNL d   1      13.323  -0.846  -1.138  0.00  0.00    +0.032 C 
ATOM     12  C12 UNL d   1      13.373  -3.539  -1.876  0.00  0.00    +0.036 C 
ATOM     13  N1  UNL d   1      14.574  -1.336   0.923  0.00  0.00    -0.345 N 
ATOM     14  S1  UNL d   1      13.209   0.892  -0.761  0.00  0.00    -0.086 S 
ATOM     15 Cl1  UNL d   1      13.426  -5.200  -2.327  0.00  0.00    -0.084 Cl
ENDROOT
BRANCH  13  16
ATOM     16  C16 UNL d   1      14.853  -2.355   1.943  0.00  0.00    +0.131 C 
BRANCH  16  17
ATOM     17  C15 UNL d   1      13.855  -2.263   3.096  0.00  0.00    +0.048 C 
BRANCH  17  18
ATOM     18  C17 UNL d   1      12.458  -2.710   2.688  0.00  0.00    +0.235 C 
BRANCH  18  19
ATOM     19  N2  UNL d   1      11.467  -1.735   3.207  0.00  0.00    -0.079 N 
ATOM     20  C13 UNL d   1      11.532  -0.406   2.495  0.00  0.00    +0.269 C 
ATOM     21  C14 UNL d   1      10.060  -2.283   3.210  0.00  0.00    +0.269 C 
ATOM     22  H20 UNL d   1      11.700  -1.542   4.196  0.00  0.00    +0.278 HD
ENDBRANCH  18  19
ENDBRANCH  17  18
ENDBRANCH  16  17
ENDBRANCH  13  16
TORSDOF 4
