/inspire/ssd/ws-f4d69b29-e0a5-44e6-bd92-acf4de9990f0/public-project/hurenling-241310070200/LamNet/model/LamNet/data/rbfe/syk-nnp/CHEMBL3265025/CHEMBL3265025.pdb
 OpenBabel01062511123D

 31 35  0  0  0  0  0  0  0  0999 V2000
   44.3190   28.8840   47.0850 C   0  0  0  0  0  0  0  0  0  0  0  0
   44.7080   29.6300   48.2290 O   0  0  0  0  0  0  0  0  0  0  0  0
   46.0560   29.8690   48.3300 C   0  0  0  0  0  0  0  0  0  0  0  0
   46.8280   29.0960   49.1890 C   0  0  0  0  0  0  0  0  0  0  0  0
   48.1890   29.3440   49.3240 C   0  0  0  0  0  0  0  0  0  0  0  0
   48.8080   30.3680   48.6030 C   0  0  0  0  0  0  0  0  0  0  0  0
   50.1930   30.5790   48.8410 N   0  0  0  0  0  0  0  0  0  0  0  0
   51.1200   31.5070   48.2940 C   0  0  0  0  0  0  0  0  0  0  0  0
   50.7510   32.3500   47.2830 N   0  0  0  0  0  0  0  0  0  0  0  0
   51.7010   33.1800   46.7470 C   0  0  0  0  0  0  0  0  0  0  0  0
   53.0040   33.2070   47.2130 C   0  0  0  0  0  0  0  0  0  0  0  0
   53.3380   32.4190   48.2690 N   0  0  0  0  0  0  0  0  0  0  0  0
   54.4950   32.3070   48.9870 C   0  0  0  0  0  0  0  0  0  0  0  0
   54.2000   31.3680   50.0100 C   0  0  0  0  0  0  0  0  0  0  0  0
   52.9830   30.8640   49.8600 N   0  0  0  0  0  0  0  0  0  0  0  0
   52.4280   31.5430   48.8400 C   0  0  0  0  0  0  0  0  0  0  0  0
   51.2480   34.0870   45.6440 C   0  0  0  0  0  0  0  0  0  0  0  0
   52.1670   34.5830   44.6840 C   0  0  0  0  0  0  0  0  0  0  0  0
   51.7240   35.4130   43.6410 C   0  0  0  0  0  0  0  0  0  0  0  0
   50.3770   35.7620   43.5630 C   0  0  0  0  0  0  0  0  0  0  0  0
   49.9160   36.5750   42.5330 N   0  0  0  0  0  0  0  0  0  0  0  0
   48.6120   36.8240   42.2470 C   0  0  0  0  0  0  0  0  0  0  0  0
   48.2110   37.6090   41.3870 O   0  0  0  0  0  0  0  0  0  0  0  0
   47.6880   35.9440   43.1540 C   0  0  0  0  0  0  0  0  0  0  0  0
   48.1770   35.6730   44.4850 O   0  0  0  0  0  0  0  0  0  0  0  0
   49.4940   35.2970   44.5230 C   0  0  0  0  0  0  0  0  0  0  0  0
   49.9060   34.4690   45.5490 C   0  0  0  0  0  0  0  0  0  0  0  0
   48.0360   31.1500   47.7100 C   0  0  0  0  0  0  0  0  0  0  0  0
   46.6480   30.8960   47.5840 C   0  0  0  0  0  0  0  0  0  0  0  0
   45.8500   31.6600   46.7480 O   0  0  0  0  0  0  0  0  0  0  0  0
   46.3960   32.3500   45.6370 C   0  0  0  0  0  0  0  0  0  0  0  0
  1  2  1  0  0  0  0
  2  3  1  0  0  0  0
  3  4  2  0  0  0  0
  3 29  1  0  0  0  0
  4  5  1  0  0  0  0
  5  6  2  0  0  0  0
  6  7  1  0  0  0  0
  6 28  1  0  0  0  0
  7  8  1  0  0  0  0
  8  9  2  0  0  0  0
  8 16  1  0  0  0  0
  9 10  1  0  0  0  0
 10 11  2  0  0  0  0
 10 17  1  0  0  0  0
 11 12  1  0  0  0  0
 12 13  1  0  0  0  0
 12 16  1  0  0  0  0
 13 14  2  0  0  0  0
 14 15  1  0  0  0  0
 15 16  2  0  0  0  0
 17 18  2  0  0  0  0
 17 27  1  0  0  0  0
 18 19  1  0  0  0  0
 19 20  2  0  0  0  0
 20 21  1  0  0  0  0
 20 26  1  0  0  0  0
 21 22  1  0  0  0  0
 22 23  2  0  0  0  0
 22 24  1  0  0  0  0
 24 25  1  0  0  0  0
 25 26  1  0  0  0  0
 26 27  2  0  0  0  0
 28 29  2  0  0  0  0
 29 30  1  0  0  0  0
 30 31  1  0  0  0  0
M  END
>  <COMPND>
    /Users/00mac/Documents/LamNet/model/LamNet/data/rbfe/syk-nnp/CHEMBL3265025/CHEMBL3265025.pdb 

>  <AUTHOR>
    GENERATED BY OPEN BABEL 3.1.0

>  <MASTER>
        0    0    0    0    0    0    0    0   31    0   31    0

$$$$
