REMARK  Name = G1_out.pdbqt
REMARK  1 active torsions:
REMARK  status: ('A' for Active; 'I' for Inactive)
REMARK    1  A    between atoms: C12_12  and  N1_13
REMARK                            x       y       z     vdW  Elec       q    Type
REMARK                         _______ _______ _______ _____ _____    ______ ____
ROOT
ATOM      1  C1  UNL d   1      -1.777   2.545  -1.324  0.00  0.00    +0.000 C 
ATOM      2  C2  UNL d   1      -2.699   3.473  -0.513  0.00  0.00    +0.000 C 
ATOM      3  C3  UNL d   1      -1.643   1.138  -0.728  0.00  0.00    +0.000 C 
ATOM      4  C4  UNL d   1      -2.254   3.754   0.931  0.00  0.00    +0.000 C 
ATOM      5  C5  UNL d   1      -0.670   0.222  -1.483  0.00  0.00    +0.000 C 
ATOM      6  C6  UNL d   1      -0.969   4.587   1.034  0.00  0.00    +0.000 C 
ATOM      7  C7  UNL d   1       0.813   0.623  -1.483  0.00  0.00    +0.000 C 
ATOM      8  C8  UNL d   1      -0.108   4.274   2.270  0.00  0.00    +0.002 C 
ATOM      9  C9  UNL d   1       1.641   0.200  -0.256  0.00  0.00    +0.002 C 
ATOM     10  C10 UNL d   1       0.400   2.824   2.382  0.00  0.00    +0.033 C 
ATOM     11  C11 UNL d   1       1.240   0.783   1.106  0.00  0.00    +0.033 C 
ATOM     12  C12 UNL d   1       1.150   2.313   1.145  0.00  0.00    +0.183 C 
ENDROOT
BRANCH  12  13
ATOM     13  N1  UNL d   1       2.523   2.892   1.130  0.00  0.00    -0.075 N 
ATOM     14  H24 UNL d   1       2.485   3.914   1.146  0.00  0.00    +0.274 HD
ATOM     15  H25 UNL d   1       3.027   2.602   0.288  0.00  0.00    +0.274 HD
ATOM     16  H26 UNL d   1       3.055   2.579   1.947  0.00  0.00    +0.274 HD
ENDBRANCH  12  13
TORSDOF 1
