/inspire/ssd/ws-f4d69b29-e0a5-44e6-bd92-acf4de9990f0/public-project/hurenling-241310070200/LamNet/model/LamNet/data/rbfe/syk-nnp/CHEMBL3265020/CHEMBL3265020.pdb
 OpenBabel01062511123D

 29 33  0  0  0  0  0  0  0  0999 V2000
   44.3430   28.9390   46.9900 C   0  0  0  0  0  0  0  0  0  0  0  0
   44.7170   29.6900   48.1350 O   0  0  0  0  0  0  0  0  0  0  0  0
   46.0680   29.9150   48.2600 C   0  0  0  0  0  0  0  0  0  0  0  0
   46.8170   29.1530   49.1500 C   0  0  0  0  0  0  0  0  0  0  0  0
   48.1730   29.3890   49.3060 C   0  0  0  0  0  0  0  0  0  0  0  0
   48.8170   30.3940   48.5790 C   0  0  0  0  0  0  0  0  0  0  0  0
   50.2000   30.5950   48.8370 N   0  0  0  0  0  0  0  0  0  0  0  0
   51.1620   31.4840   48.2830 C   0  0  0  0  0  0  0  0  0  0  0  0
   50.8450   32.2940   47.2290 N   0  0  0  0  0  0  0  0  0  0  0  0
   51.8040   33.1370   46.7320 C   0  0  0  0  0  0  0  0  0  0  0  0
   53.0980   33.1650   47.2440 C   0  0  0  0  0  0  0  0  0  0  0  0
   53.3880   32.3770   48.3180 N   0  0  0  0  0  0  0  0  0  0  0  0
   54.5220   32.2520   49.0680 C   0  0  0  0  0  0  0  0  0  0  0  0
   54.1730   31.3740   50.1160 C   0  0  0  0  0  0  0  0  0  0  0  0
   52.9550   30.8740   49.9420 N   0  0  0  0  0  0  0  0  0  0  0  0
   52.4510   31.5210   48.8750 C   0  0  0  0  0  0  0  0  0  0  0  0
   51.3710   34.0560   45.6110 C   0  0  0  0  0  0  0  0  0  0  0  0
   52.3030   34.5040   44.6660 C   0  0  0  0  0  0  0  0  0  0  0  0
   51.9490   35.3240   43.5860 C   0  0  0  0  0  0  0  0  0  0  0  0
   50.6090   35.6890   43.4830 C   0  0  0  0  0  0  0  0  0  0  0  0
   49.9460   36.4500   42.5500 N   0  0  0  0  0  0  0  0  0  0  0  0
   48.6320   36.5480   42.8500 C   0  0  0  0  0  0  0  0  0  0  0  0
   48.3680   35.8550   44.0180 C   0  0  0  0  0  0  0  0  0  0  0  0
   49.6300   35.2720   44.4480 C   0  0  0  0  0  0  0  0  0  0  0  0
   50.0280   34.4620   45.5180 C   0  0  0  0  0  0  0  0  0  0  0  0
   48.0750   31.1620   47.6590 C   0  0  0  0  0  0  0  0  0  0  0  0
   46.6830   30.9160   47.5040 C   0  0  0  0  0  0  0  0  0  0  0  0
   45.9050   31.6520   46.6220 O   0  0  0  0  0  0  0  0  0  0  0  0
   46.4610   32.6320   45.7670 C   0  0  0  0  0  0  0  0  0  0  0  0
  1  2  1  0  0  0  0
  2  3  1  0  0  0  0
  3  4  2  0  0  0  0
  3 27  1  0  0  0  0
  4  5  1  0  0  0  0
  5  6  2  0  0  0  0
  6  7  1  0  0  0  0
  6 26  1  0  0  0  0
  7  8  1  0  0  0  0
  8  9  2  0  0  0  0
  8 16  1  0  0  0  0
  9 10  1  0  0  0  0
 10 11  2  0  0  0  0
 10 17  1  0  0  0  0
 11 12  1  0  0  0  0
 12 13  1  0  0  0  0
 12 16  1  0  0  0  0
 13 14  2  0  0  0  0
 14 15  1  0  0  0  0
 15 16  2  0  0  0  0
 17 18  2  0  0  0  0
 17 25  1  0  0  0  0
 18 19  1  0  0  0  0
 19 20  2  0  0  0  0
 20 21  1  0  0  0  0
 20 24  1  0  0  0  0
 21 22  2  0  0  0  0
 22 23  1  0  0  0  0
 23 24  2  0  0  0  0
 24 25  1  0  0  0  0
 26 27  2  0  0  0  0
 27 28  1  0  0  0  0
 28 29  1  0  0  0  0
M  END
>  <COMPND>
    /Users/00mac/Documents/LamNet/model/LamNet/data/rbfe/syk-nnp/CHEMBL3265020/CHEMBL3265020.pdb 

>  <AUTHOR>
    GENERATED BY OPEN BABEL 3.1.0

>  <MASTER>
        0    0    0    0    0    0    0    0   29    0   29    0

$$$$
