REMARK  Name = g1_out.pdbqt
REMARK  5 active torsions:
REMARK  status: ('A' for Active; 'I' for Inactive)
REMARK    1  A    between atoms: C1_1  and  C2_2
REMARK    2  A    between atoms: C1_1  and  C3_8
REMARK    3  A    between atoms: C2_2  and  C4_3
REMARK    4  A    between atoms: C4_3  and  N2_4
REMARK    5  A    between atoms: C3_8  and  N1_9
REMARK                            x       y       z     vdW  Elec       q    Type
REMARK                         _______ _______ _______ _____ _____    ______ ____
ROOT
ATOM      1  C1  UNL d   1      -0.270  25.200  22.245  0.00  0.00    +0.029 C 
ENDROOT
BRANCH   1   2
ATOM      2  C2  UNL d   1       0.744  25.667  23.289  0.00  0.00    +0.029 C 
BRANCH   2   3
ATOM      3  C4  UNL d   1       2.169  25.451  22.804  0.00  0.00    +0.229 C 
BRANCH   3   4
ATOM      4  N2  UNL d   1       3.109  25.718  23.920  0.00  0.00    -0.079 N 
ATOM      5  H12 UNL d   1       3.771  26.462  23.673  0.00  0.00    +0.274 HD
ATOM      6  H13 UNL d   1       3.651  24.878  24.151  0.00  0.00    +0.274 HD
ATOM      7  H14 UNL d   1       2.605  26.011  24.763  0.00  0.00    +0.274 HD
ENDBRANCH   3   4
ENDBRANCH   2   3
ENDBRANCH   1   2
BRANCH   1   8
ATOM      8  C3  UNL d   1      -1.642  24.995  22.868  0.00  0.00    +0.229 C 
BRANCH   8   9
ATOM      9  N1  UNL d   1      -2.670  25.021  21.799  0.00  0.00    -0.079 N 
ATOM     10  H9  UNL d   1      -2.270  25.341  20.910  0.00  0.00    +0.274 HD
ATOM     11  H10 UNL d   1      -3.440  25.654  22.044  0.00  0.00    +0.274 HD
ATOM     12  H11 UNL d   1      -3.066  24.086  21.647  0.00  0.00    +0.274 HD
ENDBRANCH   8   9
ENDBRANCH   1   8
TORSDOF 5
