REMARK  Name = TFP_out.pdbqt
REMARK  5 active torsions:
REMARK  status: ('A' for Active; 'I' for Inactive)
REMARK    1  A    between atoms: C8_8  and  C21_26
REMARK    2  A    between atoms: N1_13  and  C19_15
REMARK    3  A    between atoms: C19_15  and  C18_16
REMARK    4  A    between atoms: C18_16  and  C20_17
REMARK    5  A    between atoms: C20_17  and  N3_18
REMARK                            x       y       z     vdW  Elec       q    Type
REMARK                         _______ _______ _______ _____ _____    ______ ____
ROOT
ATOM      1  C1  UNL d   1      10.916  -3.982   4.064  0.00  0.00    +0.002 C 
ATOM      2  C2  UNL d   1       9.772  -3.213   3.919  0.00  0.00    +0.002 C 
ATOM      3  C3  UNL d   1      14.349   2.088   1.128  0.00  0.00    +0.017 C 
ATOM      4  C4  UNL d   1      12.117  -3.563   3.481  0.00  0.00    +0.031 C 
ATOM      5  C5  UNL d   1       9.831  -2.025   3.199  0.00  0.00    +0.021 C 
ATOM      6  C6  UNL d   1      13.027   1.677   1.251  0.00  0.00    +0.022 C 
ATOM      7  C7  UNL d   1      15.068  -0.145   1.683  0.00  0.00    +0.047 C 
ATOM      8  C8  UNL d   1      15.371   1.177   1.348  0.00  0.00    +0.050 C 
ATOM      9  C9  UNL d   1      12.209  -2.369   2.734  0.00  0.00    +0.052 C 
ATOM     10  C10 UNL d   1      13.737  -0.599   1.804  0.00  0.00    +0.053 C 
ATOM     11  C11 UNL d   1      11.037  -1.597   2.617  0.00  0.00    +0.032 C 
ATOM     12  C12 UNL d   1      12.716   0.348   1.593  0.00  0.00    +0.032 C 
ATOM     13  N1  UNL d   1      13.430  -1.939   2.156  0.00  0.00    -0.345 N 
ATOM     14  S1  UNL d   1      10.987  -0.070   1.699  0.00  0.00    -0.086 S 
ENDROOT
BRANCH   8  15
ATOM     15  C21 UNL d   1      16.794   1.611   1.233  0.00  0.00    +0.417 C 
ATOM     16  F1  UNL d   1      16.959   2.966   1.286  0.00  0.00    -0.166 F 
ATOM     17  F2  UNL d   1      17.597   1.114   2.220  0.00  0.00    -0.166 F 
ATOM     18  F3  UNL d   1      17.369   1.218   0.059  0.00  0.00    -0.166 F 
ENDBRANCH   8  15
BRANCH  13  19
ATOM     19  C19 UNL d   1      14.483  -2.944   1.972  0.00  0.00    +0.131 C 
BRANCH  19  20
ATOM     20  C18 UNL d   1      14.197  -3.819   0.753  0.00  0.00    +0.048 C 
BRANCH  20  21
ATOM     21  C20 UNL d   1      14.579  -3.134  -0.552  0.00  0.00    +0.236 C 
BRANCH  21  22
ATOM     22  N3  UNL d   1      13.342  -2.932  -1.381  0.00  0.00    -0.068 N 
ATOM     23  C15 UNL d   1      13.072  -1.472  -1.646  0.00  0.00    +0.265 C 
ATOM     24  C13 UNL d   1      11.848  -1.346  -2.547  0.00  0.00    +0.299 C 
ATOM     25  N2  UNL d   1      10.678  -1.996  -1.945  0.00  0.00    +0.087 NA
ATOM     26  C14 UNL d   1      10.940  -3.420  -1.699  0.00  0.00    +0.299 C 
ATOM     27  C17 UNL d   1       9.502  -1.831  -2.800  0.00  0.00    +0.310 C 
ATOM     28  C16 UNL d   1      12.138  -3.607  -0.774  0.00  0.00    +0.265 C 
ATOM     29  H25 UNL d   1      13.515  -3.379  -2.293  0.00  0.00    +0.280 HD
ENDBRANCH  21  22
ENDBRANCH  20  21
ENDBRANCH  19  20
ENDBRANCH  13  19
TORSDOF 5
