REMARK  Name = G6_out.pdbqt
REMARK  2 active torsions:
REMARK  status: ('A' for Active; 'I' for Inactive)
REMARK    1  A    between atoms: C17_6  and  C6_7
REMARK    2  A    between atoms: C17_6  and  N1_13
REMARK                            x       y       z     vdW  Elec       q    Type
REMARK                         _______ _______ _______ _____ _____    ______ ____
ROOT
ATOM      1  C7  UNL d   1       9.573  40.719  27.253  0.00  0.00    +0.000 C 
ATOM      2  C8  UNL d   1      10.506  39.525  27.077  0.00  0.00    +0.003 C 
ATOM      3  C9  UNL d   1       8.335  40.357  28.067  0.00  0.00    +0.003 C 
ATOM      4  C13 UNL d   1       9.767  38.301  26.525  0.00  0.00    +0.044 C 
ATOM      5  C14 UNL d   1       7.611  39.149  27.467  0.00  0.00    +0.044 C 
ATOM      6  C17 UNL d   1       8.530  37.900  27.375  0.00  0.00    +0.154 C 
ENDROOT
BRANCH   6   7
ATOM      7  N1  UNL d   1       7.784  36.894  26.543  0.00  0.00    -0.058 N 
ATOM      8  C15 UNL d   1       6.550  37.497  25.913  0.00  0.00    +0.236 C 
ATOM      9  C11 UNL d   1       5.771  36.410  25.186  0.00  0.00    +0.028 C 
ATOM     10  C10 UNL d   1       6.635  35.686  24.159  0.00  0.00    +0.003 C 
ATOM     11  C12 UNL d   1       7.913  35.147  24.794  0.00  0.00    +0.028 C 
ATOM     12  C16 UNL d   1       8.684  36.238  25.522  0.00  0.00    +0.236 C 
ATOM     13  H26 UNL d   1       7.464  36.152  27.183  0.00  0.00    +0.281 HD
ENDBRANCH   6   7
BRANCH   6  14
ATOM     14  C6  UNL d   1       8.835  37.272  28.744  0.00  0.00    -0.022 C 
ATOM     15  C4  UNL d   1      10.046  36.614  28.957  0.00  0.00    +0.010 C 
ATOM     16  C2  UNL d   1      10.321  36.045  30.200  0.00  0.00    +0.001 C 
ATOM     17  C1  UNL d   1       9.385  36.132  31.230  0.00  0.00    +0.000 C 
ATOM     18  C3  UNL d   1       8.174  36.790  31.018  0.00  0.00    +0.001 C 
ATOM     19  C5  UNL d   1       7.899  37.360  29.775  0.00  0.00    +0.010 C 
ENDBRANCH   6  14
TORSDOF 2
