REMARK  Name = G12_out.pdbqt
REMARK  6 active torsions:
REMARK  status: ('A' for Active; 'I' for Inactive)
REMARK    1  A    between atoms: C24_1  and  C19_2
REMARK    2  A    between atoms: C24_1  and  C20_16
REMARK    3  A    between atoms: C11_8  and  O2_12
REMARK    4  A    between atoms: C12_9  and  O3_14
REMARK    5  A    between atoms: N1_19  and  C23_23
REMARK    6  A    between atoms: C23_23  and  C10_24
REMARK                            x       y       z     vdW  Elec       q    Type
REMARK                         _______ _______ _______ _____ _____    ______ ____
ROOT
ATOM      1  C24 CB8 d   1      10.420  37.361  31.570  0.00  0.00    +0.017 C 
ENDROOT
BRANCH   1   2
ATOM      2  C19 CB8 d   1       9.796  36.446  30.545  0.00  0.00    +0.065 C 
ATOM      3  C13 CB8 d   1       8.384  36.886  30.205  0.00  0.00    +0.164 C 
ATOM      4  C8  CB8 d   1       8.257  37.034  28.764  0.00  0.00    +0.019 C 
ATOM      5  O1  CB8 d   1       7.475  37.081  30.991  0.00  0.00    -0.292 OA
ATOM      6  C6  CB8 d   1       7.136  37.367  28.026  0.00  0.00    +0.055 C 
ATOM      7  C9  CB8 d   1       9.496  36.781  28.188  0.00  0.00    -0.041 C 
ATOM      8  C11 CB8 d   1       7.282  37.443  26.641  0.00  0.00    +0.102 C 
ATOM      9  C12 CB8 d   1       8.525  37.190  26.038  0.00  0.00    +0.102 C 
ATOM     10  C7  CB8 d   1       9.642  36.858  26.812  0.00  0.00    +0.047 C 
ATOM     11  C14 CB8 d   1      10.553  36.460  29.197  0.00  0.00    +0.052 C 
BRANCH   8  12
ATOM     12  O2  CB8 d   1       6.201  37.768  25.875  0.00  0.00    -0.353 OA
ATOM     13  C21 CB8 d   1       5.195  36.771  25.720  0.00  0.00    +0.210 C 
ENDBRANCH   8  12
BRANCH   9  14
ATOM     14  O3  CB8 d   1       8.659  37.269  24.683  0.00  0.00    -0.353 OA
ATOM     15  C22 CB8 d   1       8.483  36.063  23.943  0.00  0.00    +0.210 C 
ENDBRANCH   9  14
ENDBRANCH   1   2
BRANCH   1  16
ATOM     16  C20 CB8 d   1      10.767  38.714  30.953  0.00  0.00    -0.011 C 
ATOM     17  C15 CB8 d   1      12.188  39.140  31.340  0.00  0.00    +0.032 C 
ATOM     18  C17 CB8 d   1      12.535  40.516  30.787  0.00  0.00    +0.235 C 
ATOM     19  N1  CB8 d   1      11.510  41.519  31.258  0.00  0.00    -0.067 N 
ATOM     20  C18 CB8 d   1      10.112  41.153  30.825  0.00  0.00    +0.235 C 
ATOM     21  H30 CB8 d   1      11.524  41.510  32.287  0.00  0.00    +0.280 HD
ATOM     22  C16 CB8 d   1       9.752  39.782  31.379  0.00  0.00    +0.032 C 
BRANCH  19  23
ATOM     23  C23 CB8 d   1      11.872  42.918  30.841  0.00  0.00    +0.273 C 
BRANCH  23  24
ATOM     24  C10 CB8 d   1      13.124  43.422  31.496  0.00  0.00    -0.033 C 
ATOM     25  C4  CB8 d   1      14.208  43.821  30.714  0.00  0.00    +0.009 C 
ATOM     26  C2  CB8 d   1      15.372  44.291  31.323  0.00  0.00    +0.001 C 
ATOM     27  C1  CB8 d   1      15.452  44.361  32.714  0.00  0.00    +0.000 C 
ATOM     28  C3  CB8 d   1      14.367  43.964  33.496  0.00  0.00    +0.001 C 
ATOM     29  C5  CB8 d   1      13.204  43.494  32.886  0.00  0.00    +0.009 C 
ENDBRANCH  23  24
ENDBRANCH  19  23
ENDBRANCH   1  16
TORSDOF 6
