REMARK  Name = 1_out.pdbqt
REMARK  4 active torsions:
REMARK  status: ('A' for Active; 'I' for Inactive)
REMARK    1  A    between atoms: C5_5  and  C7_7
REMARK    2  A    between atoms: C6_6  and  C8_12
REMARK    3  A    between atoms: C7_7  and  N1_8
REMARK    4  A    between atoms: C8_12  and  N2_13
REMARK                            x       y       z     vdW  Elec       q    Type
REMARK                         _______ _______ _______ _____ _____    ______ ____
ROOT
ATOM      1  C1  <0> d   1       0.906  -1.158  -0.903  0.00  0.00    +0.009 C 
ATOM      2  C2  <0> d   1       1.246  -1.158   0.449  0.00  0.00    +0.009 C 
ATOM      3  C3  <0> d   1      -1.406  -0.769  -0.321  0.00  0.00    +0.009 C 
ATOM      4  C4  <0> d   1      -1.066  -0.768   1.031  0.00  0.00    +0.009 C 
ATOM      5  C5  <0> d   1      -0.421  -0.964  -1.289  0.00  0.00    -0.033 C 
ATOM      6  C6  <0> d   1       0.261  -0.963   1.416  0.00  0.00    -0.033 C 
ENDROOT
BRANCH   5   7
ATOM      7  C7  <0> d   1      -0.786  -0.964  -2.734  0.00  0.00    +0.268 C 
BRANCH   7   8
ATOM      8  N1  <0> d   1      -1.410   0.310  -3.187  0.00  0.00    -0.075 N 
ATOM      9  H9  <0> d   1      -2.265   0.501  -2.658  0.00  0.00    +0.274 HD
ATOM     10  H10 <0> d   1      -1.654   0.259  -4.181  0.00  0.00    +0.274 HD
ATOM     11  H11 <0> d   1      -0.767   1.095  -3.055  0.00  0.00    +0.274 HD
ENDBRANCH   7   8
ENDBRANCH   5   7
BRANCH   6  12
ATOM     12  C8  <0> d   1       0.626  -0.964   2.862  0.00  0.00    +0.268 C 
BRANCH  12  13
ATOM     13  N2  <0> d   1       1.756  -0.050   3.187  0.00  0.00    -0.075 N 
ATOM     14  H12 <0> d   1       2.373   0.063   2.379  0.00  0.00    +0.274 HD
ATOM     15  H13 <0> d   1       2.309  -0.422   3.963  0.00  0.00    +0.274 HD
ATOM     16  H14 <0> d   1       1.407   0.874   3.456  0.00  0.00    +0.274 HD
ENDBRANCH  12  13
ENDBRANCH   6  12
TORSDOF 4
