REMARK  Name = G3_out.pdbqt
REMARK  5 active torsions:
REMARK  status: ('A' for Active; 'I' for Inactive)
REMARK    1  A    between atoms: C5_1  and  C4_2
REMARK    2  A    between atoms: C5_1  and  C6_6
REMARK    3  A    between atoms: C4_2  and  C3_3
REMARK    4  A    between atoms: C3_3  and  C2_4
REMARK    5  A    between atoms: C6_6  and  N1_7
REMARK                            x       y       z     vdW  Elec       q    Type
REMARK                         _______ _______ _______ _____ _____    ______ ____
ROOT
ATOM      1  C5  MOL d   1       1.011  -0.794  -2.783  0.00  0.00    +0.028 C 
ENDROOT
BRANCH   1   2
ATOM      2  C4  MOL d   1       1.796   0.084  -1.796  0.00  0.00    +0.002 C 
BRANCH   2   3
ATOM      3  C3  MOL d   1       0.852   1.063  -1.085  0.00  0.00    -0.000 C 
BRANCH   3   4
ATOM      4  C2  MOL d   1      -0.356   0.320  -0.502  0.00  0.00    -0.005 C 
ATOM      5  C1  MOL d   1      -0.076  -0.115   0.940  0.00  0.00    +0.005 C 
ENDBRANCH   3   4
ENDBRANCH   2   3
ENDBRANCH   1   2
BRANCH   1   6
ATOM      6  C6  MOL d   1       1.197  -0.140  -4.171  0.00  0.00    +0.236 C 
BRANCH   6   7
ATOM      7  N1  MOL d   1      -0.125   0.296  -4.735  0.00  0.00    -0.079 N 
ATOM      8  C7  MOL d   1      -0.231  -0.027  -6.184  0.00  0.00    +0.271 C 
ATOM      9  C8  MOL d   1      -0.218   1.769  -4.580  0.00  0.00    +0.271 C 
ATOM     10  C9  MOL d   1      -1.261  -0.323  -3.998  0.00  0.00    +0.271 C 
ENDBRANCH   6   7
ENDBRANCH   1   6
TORSDOF 5
