REMARK  Name = 4_out.pdbqt
REMARK  7 active torsions:
REMARK  status: ('A' for Active; 'I' for Inactive)
REMARK    1  A    between atoms: C1_1  and  C2_2
REMARK    2  A    between atoms: C1_1  and  C3_9
REMARK    3  A    between atoms: C2_2  and  C4_3
REMARK    4  A    between atoms: C4_3  and  C6_4
REMARK    5  A    between atoms: C6_4  and  N2_5
REMARK    6  A    between atoms: C3_9  and  C5_10
REMARK    7  A    between atoms: C5_10  and  N1_11
REMARK                            x       y       z     vdW  Elec       q    Type
REMARK                         _______ _______ _______ _____ _____    ______ ____
ROOT
ATOM      1  C1  <0> d   1      -1.727   0.449  -0.167  0.00  0.00    +0.002 C 
ENDROOT
BRANCH   1   2
ATOM      2  C2  <0> d   1      -1.456  -1.025   0.142  0.00  0.00    +0.002 C 
BRANCH   2   3
ATOM      3  C4  <0> d   1      -0.331  -1.578  -0.734  0.00  0.00    +0.027 C 
BRANCH   3   4
ATOM      4  C6  <0> d   1      -0.470  -1.096  -2.170  0.00  0.00    +0.229 C 
BRANCH   4   5
ATOM      5  N2  <0> d   1       0.880  -0.930  -2.760  0.00  0.00    -0.079 N 
ATOM      6  H16 <0> d   1       0.820  -0.656  -3.746  0.00  0.00    +0.274 HD
ATOM      7  H17 <0> d   1       1.414  -1.806  -2.707  0.00  0.00    +0.274 HD
ATOM      8  H18 <0> d   1       1.412  -0.208  -2.263  0.00  0.00    +0.274 HD
ENDBRANCH   4   5
ENDBRANCH   3   4
ENDBRANCH   2   3
ENDBRANCH   1   2
BRANCH   1   9
ATOM      9  C3  <0> d   1      -0.845   1.367   0.681  0.00  0.00    +0.027 C 
BRANCH   9  10
ATOM     10  C5  <0> d   1      -0.811   0.906   2.131  0.00  0.00    +0.229 C 
BRANCH  10  11
ATOM     11  N1  <0> d   1       0.545   1.141   2.684  0.00  0.00    -0.079 N 
ATOM     12  H13 <0> d   1       0.999   0.255   2.931  0.00  0.00    +0.274 HD
ATOM     13  H14 <0> d   1       0.500   1.720   3.530  0.00  0.00    +0.274 HD
ATOM     14  H15 <0> d   1       1.141   1.623   2.003  0.00  0.00    +0.274 HD
ENDBRANCH  10  11
ENDBRANCH   9  10
ENDBRANCH   1   9
TORSDOF 7
