REMARK  Name = g3_out.pdbqt
REMARK  7 active torsions:
REMARK  status: ('A' for Active; 'I' for Inactive)
REMARK    1  A    between atoms: C1_1  and  C2_2
REMARK    2  A    between atoms: C1_1  and  C3_9
REMARK    3  A    between atoms: C2_2  and  C4_3
REMARK    4  A    between atoms: C4_3  and  C6_4
REMARK    5  A    between atoms: C6_4  and  N2_5
REMARK    6  A    between atoms: C3_9  and  C5_10
REMARK    7  A    between atoms: C5_10  and  N1_11
REMARK                            x       y       z     vdW  Elec       q    Type
REMARK                         _______ _______ _______ _____ _____    ______ ____
ROOT
ATOM      1  C1  UNL d   1       0.910  25.763  23.314  0.00  0.00    +0.002 C 
ENDROOT
BRANCH   1   2
ATOM      2  C2  UNL d   1       2.364  25.403  23.003  0.00  0.00    +0.002 C 
BRANCH   2   3
ATOM      3  C4  UNL d   1       3.298  25.834  24.135  0.00  0.00    +0.027 C 
BRANCH   3   4
ATOM      4  C6  UNL d   1       4.756  25.685  23.727  0.00  0.00    +0.229 C 
BRANCH   4   5
ATOM      5  N2  UNL d   1       4.898  26.046  22.296  0.00  0.00    -0.079 N 
ATOM      6  H16 UNL d   1       5.854  25.875  21.967  0.00  0.00    +0.274 HD
ATOM      7  H17 UNL d   1       4.684  27.039  22.144  0.00  0.00    +0.274 HD
ATOM      8  H18 UNL d   1       4.261  25.494  21.712  0.00  0.00    +0.274 HD
ENDBRANCH   4   5
ENDBRANCH   3   4
ENDBRANCH   2   3
ENDBRANCH   1   2
BRANCH   1   9
ATOM      9  C3  UNL d   1      -0.055  25.052  22.363  0.00  0.00    +0.027 C 
BRANCH   9  10
ATOM     10  C5  UNL d   1      -1.474  25.069  22.912  0.00  0.00    +0.229 C 
BRANCH  10  11
ATOM     11  N1  UNL d   1      -2.432  25.022  21.781  0.00  0.00    -0.079 N 
ATOM     12  H13 UNL d   1      -3.365  24.740  22.102  0.00  0.00    +0.274 HD
ATOM     13  H14 UNL d   1      -2.127  24.348  21.070  0.00  0.00    +0.274 HD
ATOM     14  H15 UNL d   1      -2.517  25.940  21.332  0.00  0.00    +0.274 HD
ENDBRANCH  10  11
ENDBRANCH   9  10
ENDBRANCH   1   9
TORSDOF 7
