REMARK  Name = PMZ_out.pdbqt
REMARK  4 active torsions:
REMARK  status: ('A' for Active; 'I' for Inactive)
REMARK    1  A    between atoms: N1_13  and  C16_15
REMARK    2  A    between atoms: C16_15  and  C15_16
REMARK    3  A    between atoms: C15_16  and  C17_17
REMARK    4  A    between atoms: C17_17  and  N2_18
REMARK                            x       y       z     vdW  Elec       q    Type
REMARK                         _______ _______ _______ _____ _____    ______ ____
ROOT
ATOM      1  C1  UNL d   1      16.514   1.583   2.342  0.00  0.00    +0.002 C 
ATOM      2  C2  UNL d   1      13.334  -3.517  -1.867  0.00  0.00    +0.002 C 
ATOM      3  C3  UNL d   1      15.962   2.648   1.646  0.00  0.00    +0.002 C 
ATOM      4  C4  UNL d   1      12.693  -2.592  -2.679  0.00  0.00    +0.002 C 
ATOM      5  C5  UNL d   1      16.066   0.283   2.099  0.00  0.00    +0.031 C 
ATOM      6  C6  UNL d   1      13.959  -3.097  -0.690  0.00  0.00    +0.031 C 
ATOM      7  C7  UNL d   1      14.966   2.408   0.705  0.00  0.00    +0.021 C 
ATOM      8  C8  UNL d   1      12.685  -1.250  -2.315  0.00  0.00    +0.021 C 
ATOM      9  C9  UNL d   1      15.049   0.005   1.160  0.00  0.00    +0.052 C 
ATOM     10  C10 UNL d   1      13.959  -1.744  -0.284  0.00  0.00    +0.052 C 
ATOM     11  C11 UNL d   1      14.515   1.101   0.453  0.00  0.00    +0.032 C 
ATOM     12  C12 UNL d   1      13.317  -0.822  -1.133  0.00  0.00    +0.032 C 
ATOM     13  N1  UNL d   1      14.603  -1.316   0.904  0.00  0.00    -0.345 N 
ATOM     14  S1  UNL d   1      13.221   0.917  -0.758  0.00  0.00    -0.086 S 
ENDROOT
BRANCH  13  15
ATOM     15  C16 UNL d   1      14.895  -2.336   1.920  0.00  0.00    +0.131 C 
BRANCH  15  16
ATOM     16  C15 UNL d   1      13.927  -2.228   3.096  0.00  0.00    +0.048 C 
BRANCH  16  17
ATOM     17  C17 UNL d   1      12.597  -2.915   2.815  0.00  0.00    +0.235 C 
BRANCH  17  18
ATOM     18  N2  UNL d   1      11.491  -2.034   3.268  0.00  0.00    -0.079 N 
ATOM     19  C13 UNL d   1      11.440  -0.731   2.509  0.00  0.00    +0.269 C 
ATOM     20  C14 UNL d   1      10.151  -2.729   3.251  0.00  0.00    +0.269 C 
ATOM     21  H21 UNL d   1      11.671  -1.784   4.256  0.00  0.00    +0.278 HD
ENDBRANCH  17  18
ENDBRANCH  16  17
ENDBRANCH  15  16
ENDBRANCH  13  15
TORSDOF 4
