REMARK  Name = G3_out.pdbqt
REMARK  4 active torsions:
REMARK  status: ('A' for Active; 'I' for Inactive)
REMARK    1  A    between atoms: C5_1  and  C3_2
REMARK    2  A    between atoms: C5_1  and  C6_5
REMARK    3  A    between atoms: C6_5  and  C4_6
REMARK    4  A    between atoms: C4_6  and  C2_7
REMARK                            x       y       z     vdW  Elec       q    Type
REMARK                         _______ _______ _______ _____ _____    ______ ____
ROOT
ATOM      1  C5  TEM d   1      -0.823  -0.391  -2.908  0.00  0.00    +0.113 C 
ENDROOT
BRANCH   1   2
ATOM      2  C3  TEM d   1       0.365  -0.324  -3.874  0.00  0.00    +0.172 C 
ATOM      3  O1  TEM d   1       1.230  -1.230  -3.698  0.00  0.00    -0.648 OA
ATOM      4  O2  TEM d   1       0.341   0.602  -4.730  0.00  0.00    -0.648 OA
ENDBRANCH   1   2
BRANCH   1   5
ATOM      5  C6  TEM d   1      -0.926   0.727  -1.875  0.00  0.00    +0.014 C 
BRANCH   5   6
ATOM      6  C4  TEM d   1       0.422   1.028  -1.210  0.00  0.00    +0.027 C 
BRANCH   6   7
ATOM      7  C2  TEM d   1       0.695   0.076  -0.083  0.00  0.00    -0.037 C 
ATOM      8  C1  TEM d   1      -0.131  -0.115   0.951  0.00  0.00    +0.007 C 
ENDBRANCH   6   7
ENDBRANCH   5   6
ENDBRANCH   1   5
TORSDOF 4
