REMARK  Name = g7_out.pdbqt
REMARK  1 active torsions:
REMARK  status: ('A' for Active; 'I' for Inactive)
REMARK    1  A    between atoms: C6_6  and  N1_8
REMARK                            x       y       z     vdW  Elec       q    Type
REMARK                         _______ _______ _______ _____ _____    ______ ____
ROOT
ATOM      1  C1  UNL d   1      -0.519  -1.115  -1.875  0.00  0.00    +0.006 C 
ATOM      2  C2  UNL d   1       0.754   1.070  -1.772  0.00  0.00    +0.006 C 
ATOM      3  C3  UNL d   1      -0.002  -1.349  -3.294  0.00  0.00    +0.034 C 
ATOM      4  C4  UNL d   1       1.271   0.836  -3.190  0.00  0.00    +0.034 C 
ATOM      5  C5  UNL d   1       0.451  -0.253  -1.053  0.00  0.00    -0.019 C 
ATOM      6  C6  UNL d   1       0.298  -0.025  -3.992  0.00  0.00    +0.189 C 
ATOM      7  C7  UNL d   1      -0.113   0.009   0.343  0.00  0.00    +0.010 C 
ENDROOT
BRANCH   6   8
ATOM      8  N1  UNL d   1       0.893  -0.308  -5.325  0.00  0.00    -0.074 N 
ATOM      9  C8  UNL d   1       0.024   0.281  -6.443  0.00  0.00    +0.272 C 
ATOM     10  C9  UNL d   1       1.011  -1.820  -5.555  0.00  0.00    +0.272 C 
ATOM     11  C10 UNL d   1       2.295   0.304  -5.434  0.00  0.00    +0.272 C 
ENDBRANCH   6   8
TORSDOF 1
