REMARK  Name = g1_out.pdbqt
REMARK  4 active torsions:
REMARK  status: ('A' for Active; 'I' for Inactive)
REMARK    1  A    between atoms: C3_1  and  C1_2
REMARK    2  A    between atoms: C3_1  and  C5_5
REMARK    3  A    between atoms: C5_5  and  C6_6
REMARK    4  A    between atoms: C6_6  and  C4_7
REMARK                            x       y       z     vdW  Elec       q    Type
REMARK                         _______ _______ _______ _____ _____    ______ ____
ROOT
ATOM      1  C3  UNL d   1      -1.144   1.263  -3.624  0.00  0.00    +0.113 C 
ENDROOT
BRANCH   1   2
ATOM      2  C1  UNL d   1       0.190   1.958  -3.916  0.00  0.00    +0.172 C 
ATOM      3  O1  UNL d   1       0.306   2.383  -5.102  0.00  0.00    -0.648 OA
ATOM      4  O2  UNL d   1       1.014   2.015  -2.962  0.00  0.00    -0.648 OA
ENDBRANCH   1   2
BRANCH   1   5
ATOM      5  C5  UNL d   1      -1.358   0.771  -2.196  0.00  0.00    +0.010 C 
BRANCH   5   6
ATOM      6  C6  UNL d   1      -0.880  -0.671  -1.999  0.00  0.00    +0.000 C 
BRANCH   6   7
ATOM      7  C4  UNL d   1       0.255  -0.743  -0.978  0.00  0.00    -0.005 C 
ATOM      8  C2  UNL d   1      -0.074   0.051   0.277  0.00  0.00    +0.005 C 
ENDBRANCH   6   7
ENDBRANCH   5   6
ENDBRANCH   1   5
TORSDOF 4
