REMARK  Name = g8_out.pdbqt
REMARK  4 active torsions:
REMARK  status: ('A' for Active; 'I' for Inactive)
REMARK    1  A    between atoms: C5_5  and  C7_7
REMARK    2  A    between atoms: C6_6  and  C8_12
REMARK    3  A    between atoms: C7_7  and  N1_8
REMARK    4  A    between atoms: C8_12  and  N2_13
REMARK                            x       y       z     vdW  Elec       q    Type
REMARK                         _______ _______ _______ _____ _____    ______ ____
ROOT
ATOM      1  C1  UNL d   1       4.834  25.389  27.572  0.00  0.00    +0.009 C 
ATOM      2  C2  UNL d   1       4.841  25.072  26.214  0.00  0.00    +0.009 C 
ATOM      3  C3  UNL d   1       4.453  27.711  27.027  0.00  0.00    +0.009 C 
ATOM      4  C4  UNL d   1       4.460  27.395  25.669  0.00  0.00    +0.009 C 
ATOM      5  C5  UNL d   1       4.640  26.709  27.979  0.00  0.00    -0.033 C 
ATOM      6  C6  UNL d   1       4.655  26.074  25.263  0.00  0.00    -0.033 C 
ENDROOT
BRANCH   5   7
ATOM      7  C7  UNL d   1       4.632  27.049  29.430  0.00  0.00    +0.268 C 
BRANCH   7   8
ATOM      8  N1  UNL d   1       5.188  28.400  29.725  0.00  0.00    -0.075 N 
ATOM      9  H9  UNL d   1       6.071  28.543  29.227  0.00  0.00    +0.274 HD
ATOM     10  H10 UNL d   1       5.365  28.506  30.728  0.00  0.00    +0.274 HD
ATOM     11  H11 UNL d   1       4.533  29.131  29.436  0.00  0.00    +0.274 HD
ENDBRANCH   7   8
ENDBRANCH   5   7
BRANCH   6  12
ATOM     12  C8  UNL d   1       4.664  25.733  23.810  0.00  0.00    +0.268 C 
BRANCH  12  13
ATOM     13  N2  UNL d   1       3.306  25.487  23.252  0.00  0.00    -0.075 N 
ATOM     14  H12 UNL d   1       2.674  26.257  23.487  0.00  0.00    +0.274 HD
ATOM     15  H13 UNL d   1       2.912  24.622  23.631  0.00  0.00    +0.274 HD
ATOM     16  H14 UNL d   1       3.344  25.403  22.233  0.00  0.00    +0.274 HD
ENDBRANCH  12  13
ENDBRANCH   6  12
TORSDOF 4
