REMARK  Name = g16_out.pdbqt
REMARK  11 active torsions:
REMARK  status: ('A' for Active; 'I' for Inactive)
REMARK    1  A    between atoms: C1_1  and  C2_2
REMARK    2  A    between atoms: C1_1  and  C3_11
REMARK    3  A    between atoms: C2_2  and  C4_3
REMARK    4  A    between atoms: C4_3  and  C6_4
REMARK    5  A    between atoms: C6_4  and  C8_5
REMARK    6  A    between atoms: C8_5  and  C10_6
REMARK    7  A    between atoms: C10_6  and  N2_7
REMARK    8  A    between atoms: C3_11  and  C5_12
REMARK    9  A    between atoms: C5_12  and  C7_13
REMARK   10  A    between atoms: C7_13  and  C9_14
REMARK   11  A    between atoms: C9_14  and  N1_15
REMARK                            x       y       z     vdW  Elec       q    Type
REMARK                         _______ _______ _______ _____ _____    ______ ____
ROOT
ATOM      1  C1  UNL d   1       3.153  25.805  24.061  0.00  0.00    +0.000 C 
ENDROOT
BRANCH   1   2
ATOM      2  C2  UNL d   1       4.627  25.696  23.656  0.00  0.00    +0.000 C 
BRANCH   2   3
ATOM      3  C4  UNL d   1       5.563  25.439  24.840  0.00  0.00    +0.000 C 
BRANCH   3   4
ATOM      4  C6  UNL d   1       4.834  25.409  26.188  0.00  0.00    +0.002 C 
BRANCH   4   5
ATOM      5  C8  UNL d   1       5.598  26.132  27.303  0.00  0.00    +0.027 C 
BRANCH   5   6
ATOM      6  C10 UNL d   1       5.423  27.646  27.270  0.00  0.00    +0.229 C 
BRANCH   6   7
ATOM      7  N2  UNL d   1       4.042  28.004  26.871  0.00  0.00    -0.079 N 
ATOM      8  H24 UNL d   1       3.391  27.891  27.657  0.00  0.00    +0.274 HD
ATOM      9  H25 UNL d   1       3.714  27.407  26.104  0.00  0.00    +0.274 HD
ATOM     10  H26 UNL d   1       3.991  28.979  26.556  0.00  0.00    +0.274 HD
ENDBRANCH   6   7
ENDBRANCH   5   6
ENDBRANCH   4   5
ENDBRANCH   3   4
ENDBRANCH   2   3
ENDBRANCH   1   2
BRANCH   1  11
ATOM     11  C3  UNL d   1       2.185  25.439  22.934  0.00  0.00    +0.000 C 
BRANCH  11  12
ATOM     12  C5  UNL d   1       0.736  25.742  23.328  0.00  0.00    +0.002 C 
BRANCH  12  13
ATOM     13  C7  UNL d   1      -0.247  25.174  22.301  0.00  0.00    +0.027 C 
BRANCH  13  14
ATOM     14  C9  UNL d   1      -1.658  24.993  22.849  0.00  0.00    +0.229 C 
BRANCH  14  15
ATOM     15  N1  UNL d   1      -2.656  25.059  21.756  0.00  0.00    -0.079 N 
ATOM     16  H21 UNL d   1      -2.494  25.875  21.156  0.00  0.00    +0.274 HD
ATOM     17  H22 UNL d   1      -3.610  25.130  22.132  0.00  0.00    +0.274 HD
ATOM     18  H23 UNL d   1      -2.613  24.220  21.166  0.00  0.00    +0.274 HD
ENDBRANCH  14  15
ENDBRANCH  13  14
ENDBRANCH  12  13
ENDBRANCH  11  12
ENDBRANCH   1  11
TORSDOF 11
