REMARK  Name = 5_out.pdbqt
REMARK  1 active torsions:
REMARK  status: ('A' for Active; 'I' for Inactive)
REMARK    1  A    between atoms: C5_5  and  C7_8
REMARK                            x       y       z     vdW  Elec       q    Type
REMARK                         _______ _______ _______ _____ _____    ______ ____
ROOT
ATOM      1  C1  <0> d   1      -0.629 -10.204   5.931  0.00  0.00    +0.003 C 
ATOM      2  C2  <0> d   1       0.707 -10.030   6.291  0.00  0.00    +0.018 C 
ATOM      3  C3  <0> d   1      -1.292  -9.212   5.210  0.00  0.00    +0.024 C 
ATOM      4  C4  <0> d   1       0.717  -7.870   5.208  0.00  0.00    +0.042 C 
ATOM      5  C5  <0> d   1       1.380  -8.863   5.930  0.00  0.00    +0.042 C 
ATOM      6  C6  <0> d   1      -0.619  -8.045   4.849  0.00  0.00    +0.035 C 
ATOM      7 Cl1  <0> d   1      -1.438  -6.819   3.959  0.00  0.00    -0.084 Cl
ENDROOT
BRANCH   5   8
ATOM      8  C7  <0> d   1       2.791  -8.680   6.310  0.00  0.00    +0.209 C 
ATOM      9  O1  <0> d   1       3.086  -8.563   7.559  0.00  0.00    -0.644 OA
ATOM     10  O2  <0> d   1       3.682  -8.644   5.383  0.00  0.00    -0.644 OA
ENDBRANCH   5   8
TORSDOF 1
