/inspire/ssd/ws-f4d69b29-e0a5-44e6-bd92-acf4de9990f0/public-project/hurenling-241310070200/LamNet/model/LamNet/data/rbfe/syk-nnp/CHEMBL3265035/CHEMBL3265035.pdb
 OpenBabel01062511123D

 30 34  0  0  0  0  0  0  0  0999 V2000
   44.0410   28.5780   49.1580 C   0  0  0  0  0  0  0  0  0  0  0  0
   44.6220   29.5580   48.2380 N   0  0  0  0  0  0  0  0  0  0  0  0
   43.9010   29.8860   47.0130 C   0  0  0  0  0  0  0  0  0  0  0  0
   43.7670   28.7400   45.9900 C   0  0  0  0  0  0  0  0  0  0  0  0
   43.1850   29.1420   44.7710 O   0  0  0  0  0  0  0  0  0  0  0  0
   46.0400   29.8210   48.3260 C   0  0  0  0  0  0  0  0  0  0  0  0
   46.6500   30.8440   47.5600 C   0  0  0  0  0  0  0  0  0  0  0  0
   48.0260   31.1120   47.7060 C   0  0  0  0  0  0  0  0  0  0  0  0
   48.7960   30.3500   48.6050 C   0  0  0  0  0  0  0  0  0  0  0  0
   50.1790   30.5770   48.8420 N   0  0  0  0  0  0  0  0  0  0  0  0
   51.1120   31.4840   48.2780 C   0  0  0  0  0  0  0  0  0  0  0  0
   50.7490   32.3140   47.2450 N   0  0  0  0  0  0  0  0  0  0  0  0
   51.6840   33.1720   46.7280 C   0  0  0  0  0  0  0  0  0  0  0  0
   52.9940   33.2150   47.2060 C   0  0  0  0  0  0  0  0  0  0  0  0
   53.3230   32.4170   48.2670 N   0  0  0  0  0  0  0  0  0  0  0  0
   54.4780   32.3150   48.9930 C   0  0  0  0  0  0  0  0  0  0  0  0
   54.1730   31.4020   50.0340 C   0  0  0  0  0  0  0  0  0  0  0  0
   52.9600   30.8850   49.8810 N   0  0  0  0  0  0  0  0  0  0  0  0
   52.4160   31.5320   48.8310 C   0  0  0  0  0  0  0  0  0  0  0  0
   51.2100   34.0930   45.6320 C   0  0  0  0  0  0  0  0  0  0  0  0
   52.1210   34.5760   44.6710 C   0  0  0  0  0  0  0  0  0  0  0  0
   51.7270   35.3970   43.6160 C   0  0  0  0  0  0  0  0  0  0  0  0
   50.3830   35.7520   43.5240 C   0  0  0  0  0  0  0  0  0  0  0  0
   49.5720   36.5310   42.6260 C   0  0  0  0  0  0  0  0  0  0  0  0
   48.3310   36.5400   43.0260 N   0  0  0  0  0  0  0  0  0  0  0  0
   48.2450   35.8260   44.1400 N   0  0  0  0  0  0  0  0  0  0  0  0
   49.4590   35.2930   44.5080 C   0  0  0  0  0  0  0  0  0  0  0  0
   49.8500   34.4700   45.5710 C   0  0  0  0  0  0  0  0  0  0  0  0
   48.1840   29.3320   49.3310 C   0  0  0  0  0  0  0  0  0  0  0  0
   46.8290   29.0720   49.2040 C   0  0  0  0  0  0  0  0  0  0  0  0
  1  2  1  0  0  0  0
  2  3  1  0  0  0  0
  2  6  1  0  0  0  0
  3  4  1  0  0  0  0
  4  5  1  0  0  0  0
  6  7  2  0  0  0  0
  6 30  1  0  0  0  0
  7  8  1  0  0  0  0
  8  9  2  0  0  0  0
  9 10  1  0  0  0  0
  9 29  1  0  0  0  0
 10 11  1  0  0  0  0
 11 12  2  0  0  0  0
 11 19  1  0  0  0  0
 12 13  1  0  0  0  0
 13 14  2  0  0  0  0
 13 20  1  0  0  0  0
 14 15  1  0  0  0  0
 15 16  1  0  0  0  0
 15 19  1  0  0  0  0
 16 17  2  0  0  0  0
 17 18  1  0  0  0  0
 18 19  2  0  0  0  0
 20 21  2  0  0  0  0
 20 28  1  0  0  0  0
 21 22  1  0  0  0  0
 22 23  2  0  0  0  0
 23 24  1  0  0  0  0
 23 27  1  0  0  0  0
 24 25  2  0  0  0  0
 25 26  1  0  0  0  0
 26 27  2  0  0  0  0
 27 28  1  0  0  0  0
 29 30  2  0  0  0  0
M  END
>  <COMPND>
    /Users/00mac/Documents/LamNet/model/LamNet/data/rbfe/syk-nnp/CHEMBL3265035/CHEMBL3265035.pdb 

>  <AUTHOR>
    GENERATED BY OPEN BABEL 3.1.0

>  <MASTER>
        0    0    0    0    0    0    0    0   30    0   30    0

$$$$
