REMARK  Name = 8_out.pdbqt
REMARK  1 active torsions:
REMARK  status: ('A' for Active; 'I' for Inactive)
REMARK    1  A    between atoms: C6_5  and  C1_6
REMARK                            x       y       z     vdW  Elec       q    Type
REMARK                         _______ _______ _______ _____ _____    ______ ____
ROOT
ATOM      1  C2  <0> d   1      -1.596  -8.213   4.068  0.00  0.00    +0.001 C 
ATOM      2  C3  <0> d   1      -0.814  -6.915   4.160  0.00  0.00    +0.001 C 
ATOM      3  C4  <0> d   1      -1.034  -9.035   5.220  0.00  0.00    +0.015 C 
ATOM      4  C5  <0> d   1       0.603  -7.358   4.514  0.00  0.00    +0.015 C 
ATOM      5  C6  <0> d   1       0.450  -8.685   5.256  0.00  0.00    +0.087 C 
ENDROOT
BRANCH   5   6
ATOM      6  C1  <0> d   1       1.219  -9.762   4.514  0.00  0.00    +0.177 C 
ATOM      7  O1  <0> d   1       0.514 -10.695   4.036  0.00  0.00    -0.648 OA
ATOM      8  O2  <0> d   1       2.469  -9.588   4.470  0.00  0.00    -0.648 OA
ENDBRANCH   5   6
TORSDOF 1
