REMARK  Name = g18_out.pdbqt
REMARK  1 active torsions:
REMARK  status: ('A' for Active; 'I' for Inactive)
REMARK    1  A    between atoms: C9_9  and  C10_10
REMARK                            x       y       z     vdW  Elec       q    Type
REMARK                         _______ _______ _______ _____ _____    ______ ____
ROOT
ATOM      1  C1  UNL d   1       4.496  25.610  28.086  0.00  0.00    +0.029 C 
ATOM      2  C2  UNL d   1       4.062  27.967  27.842  0.00  0.00    +0.029 C 
ATOM      3  C5  UNL d   1       4.037  25.692  29.393  0.00  0.00    +0.090 C 
ATOM      4  C6  UNL d   1       3.615  27.989  29.156  0.00  0.00    +0.090 C 
ATOM      5  C9  UNL d   1       4.506  26.762  27.306  0.00  0.00    -0.023 C 
ATOM      6  C11 UNL d   1       3.137  26.919  31.262  0.00  0.00    +0.154 C 
ATOM      7  N1  UNL d   1       3.615  26.865  29.885  0.00  0.00    -0.371 N 
ENDROOT
BRANCH   5  12
ATOM      8  C3  UNL d   1       4.831  25.540  25.198  0.00  0.00    +0.029 C 
ATOM      9  C4  UNL d   1       5.578  27.824  25.364  0.00  0.00    +0.029 C 
ATOM     10  C7  UNL d   1       5.294  25.515  23.890  0.00  0.00    +0.090 C 
ATOM     11  C8  UNL d   1       6.021  27.742  24.052  0.00  0.00    +0.090 C 
ATOM     12  C10 UNL d   1       4.977  26.708  25.939  0.00  0.00    -0.023 C 
ATOM     13  C12 UNL d   1       6.346  26.548  21.982  0.00  0.00    +0.154 C 
ATOM     14  N2  UNL d   1       5.869  26.605  23.361  0.00  0.00    -0.371 N 
ENDBRANCH   5  12
TORSDOF 1
