/inspire/ssd/ws-f4d69b29-e0a5-44e6-bd92-acf4de9990f0/public-project/hurenling-241310070200/LamNet/model/LamNet/data/rbfe/syk-nnp/CHEMBL3265023/CHEMBL3265023.pdb
 OpenBabel01062511123D

 30 34  0  0  0  0  0  0  0  0999 V2000
   44.3290   28.8250   47.0820 C   0  0  0  0  0  0  0  0  0  0  0  0
   44.7130   29.5710   48.2270 O   0  0  0  0  0  0  0  0  0  0  0  0
   46.0610   29.8230   48.3280 C   0  0  0  0  0  0  0  0  0  0  0  0
   46.8360   29.0650   49.1940 C   0  0  0  0  0  0  0  0  0  0  0  0
   48.1960   29.3260   49.3300 C   0  0  0  0  0  0  0  0  0  0  0  0
   48.8050   30.3500   48.6030 C   0  0  0  0  0  0  0  0  0  0  0  0
   50.1880   30.5770   48.8410 N   0  0  0  0  0  0  0  0  0  0  0  0
   51.1120   31.5010   48.2790 C   0  0  0  0  0  0  0  0  0  0  0  0
   50.7420   32.3310   47.2480 N   0  0  0  0  0  0  0  0  0  0  0  0
   51.6870   33.1750   46.7250 C   0  0  0  0  0  0  0  0  0  0  0  0
   52.9910   33.2180   47.2060 C   0  0  0  0  0  0  0  0  0  0  0  0
   53.3230   32.4300   48.2620 N   0  0  0  0  0  0  0  0  0  0  0  0
   54.4830   32.3250   48.9870 C   0  0  0  0  0  0  0  0  0  0  0  0
   54.1840   31.4020   50.0220 C   0  0  0  0  0  0  0  0  0  0  0  0
   52.9700   30.8930   49.8710 N   0  0  0  0  0  0  0  0  0  0  0  0
   52.4180   31.5490   48.8330 C   0  0  0  0  0  0  0  0  0  0  0  0
   51.2370   34.0830   45.6170 C   0  0  0  0  0  0  0  0  0  0  0  0
   52.1680   34.5760   44.6800 C   0  0  0  0  0  0  0  0  0  0  0  0
   51.8110   35.4370   43.6370 C   0  0  0  0  0  0  0  0  0  0  0  0
   50.4680   35.7730   43.5620 C   0  0  0  0  0  0  0  0  0  0  0  0
   49.4950   35.2770   44.4800 C   0  0  0  0  0  0  0  0  0  0  0  0
   48.2730   35.8650   44.0380 C   0  0  0  0  0  0  0  0  0  0  0  0
   48.4760   36.5390   42.9500 N   0  0  0  0  0  0  0  0  0  0  0  0
   49.7710   36.5800   42.7050 N   0  0  0  0  0  0  0  0  0  0  0  0
   50.2770   37.4100   41.6030 C   0  0  0  0  0  0  0  0  0  0  0  0
   49.8820   34.4290   45.5160 C   0  0  0  0  0  0  0  0  0  0  0  0
   48.0300   31.1180   47.7040 C   0  0  0  0  0  0  0  0  0  0  0  0
   46.6460   30.8490   47.5740 C   0  0  0  0  0  0  0  0  0  0  0  0
   45.8400   31.5900   46.7250 O   0  0  0  0  0  0  0  0  0  0  0  0
   46.3680   32.5690   45.8480 C   0  0  0  0  0  0  0  0  0  0  0  0
  1  2  1  0  0  0  0
  2  3  1  0  0  0  0
  3  4  2  0  0  0  0
  3 28  1  0  0  0  0
  4  5  1  0  0  0  0
  5  6  2  0  0  0  0
  6  7  1  0  0  0  0
  6 27  1  0  0  0  0
  7  8  1  0  0  0  0
  8  9  2  0  0  0  0
  8 16  1  0  0  0  0
  9 10  1  0  0  0  0
 10 11  2  0  0  0  0
 10 17  1  0  0  0  0
 11 12  1  0  0  0  0
 12 13  1  0  0  0  0
 12 16  1  0  0  0  0
 13 14  2  0  0  0  0
 14 15  1  0  0  0  0
 15 16  2  0  0  0  0
 17 18  2  0  0  0  0
 17 26  1  0  0  0  0
 18 19  1  0  0  0  0
 19 20  2  0  0  0  0
 20 21  1  0  0  0  0
 20 24  1  0  0  0  0
 21 22  1  0  0  0  0
 21 26  2  0  0  0  0
 22 23  2  0  0  0  0
 23 24  1  0  0  0  0
 24 25  1  0  0  0  0
 27 28  2  0  0  0  0
 28 29  1  0  0  0  0
 29 30  1  0  0  0  0
M  END
>  <COMPND>
    /Users/00mac/Documents/LamNet/model/LamNet/data/rbfe/syk-nnp/CHEMBL3265023/CHEMBL3265023.pdb 

>  <AUTHOR>
    GENERATED BY OPEN BABEL 3.1.0

>  <MASTER>
        0    0    0    0    0    0    0    0   30    0   30    0

$$$$
