/inspire/ssd/ws-f4d69b29-e0a5-44e6-bd92-acf4de9990f0/public-project/hurenling-241310070200/LamNet/model/LamNet/data/rbfe/syk-nnp/CHEMBL3265017/CHEMBL3265017.pdb
 OpenBabel01062511123D

 29 33  0  0  0  0  0  0  0  0999 V2000
   44.3330   28.8360   47.0710 C   0  0  0  0  0  0  0  0  0  0  0  0
   44.7150   29.5800   48.2180 O   0  0  0  0  0  0  0  0  0  0  0  0
   46.0640   29.8290   48.3210 C   0  0  0  0  0  0  0  0  0  0  0  0
   46.8410   29.0690   49.1870 C   0  0  0  0  0  0  0  0  0  0  0  0
   48.1970   29.3280   49.3210 C   0  0  0  0  0  0  0  0  0  0  0  0
   48.8100   30.3530   48.5940 C   0  0  0  0  0  0  0  0  0  0  0  0
   50.1930   30.5770   48.8320 N   0  0  0  0  0  0  0  0  0  0  0  0
   51.1260   31.4900   48.2710 C   0  0  0  0  0  0  0  0  0  0  0  0
   50.7710   32.3110   47.2360 N   0  0  0  0  0  0  0  0  0  0  0  0
   51.7060   33.1750   46.7280 C   0  0  0  0  0  0  0  0  0  0  0  0
   53.0110   33.2190   47.2130 C   0  0  0  0  0  0  0  0  0  0  0  0
   53.3370   32.4220   48.2720 N   0  0  0  0  0  0  0  0  0  0  0  0
   54.4880   32.3120   49.0000 C   0  0  0  0  0  0  0  0  0  0  0  0
   54.1770   31.4090   50.0420 C   0  0  0  0  0  0  0  0  0  0  0  0
   52.9640   30.8920   49.8860 N   0  0  0  0  0  0  0  0  0  0  0  0
   52.4260   31.5420   48.8380 C   0  0  0  0  0  0  0  0  0  0  0  0
   51.2320   34.0980   45.6300 C   0  0  0  0  0  0  0  0  0  0  0  0
   52.1420   34.5760   44.6730 C   0  0  0  0  0  0  0  0  0  0  0  0
   51.7440   35.3980   43.6200 C   0  0  0  0  0  0  0  0  0  0  0  0
   50.3980   35.7520   43.5270 C   0  0  0  0  0  0  0  0  0  0  0  0
   49.5920   36.5310   42.6280 C   0  0  0  0  0  0  0  0  0  0  0  0
   48.3510   36.5430   43.0190 N   0  0  0  0  0  0  0  0  0  0  0  0
   48.2610   35.8320   44.1330 N   0  0  0  0  0  0  0  0  0  0  0  0
   49.4830   35.2980   44.5030 C   0  0  0  0  0  0  0  0  0  0  0  0
   49.8690   34.4780   45.5710 C   0  0  0  0  0  0  0  0  0  0  0  0
   48.0350   31.1190   47.6970 C   0  0  0  0  0  0  0  0  0  0  0  0
   46.6460   30.8510   47.5650 C   0  0  0  0  0  0  0  0  0  0  0  0
   45.8400   31.5850   46.7090 O   0  0  0  0  0  0  0  0  0  0  0  0
   46.3630   32.5850   45.8560 C   0  0  0  0  0  0  0  0  0  0  0  0
  1  2  1  0  0  0  0
  2  3  1  0  0  0  0
  3  4  2  0  0  0  0
  3 27  1  0  0  0  0
  4  5  1  0  0  0  0
  5  6  2  0  0  0  0
  6  7  1  0  0  0  0
  6 26  1  0  0  0  0
  7  8  1  0  0  0  0
  8  9  2  0  0  0  0
  8 16  1  0  0  0  0
  9 10  1  0  0  0  0
 10 11  2  0  0  0  0
 10 17  1  0  0  0  0
 11 12  1  0  0  0  0
 12 13  1  0  0  0  0
 12 16  1  0  0  0  0
 13 14  2  0  0  0  0
 14 15  1  0  0  0  0
 15 16  2  0  0  0  0
 17 18  2  0  0  0  0
 17 25  1  0  0  0  0
 18 19  1  0  0  0  0
 19 20  2  0  0  0  0
 20 21  1  0  0  0  0
 20 24  1  0  0  0  0
 21 22  2  0  0  0  0
 22 23  1  0  0  0  0
 23 24  2  0  0  0  0
 24 25  1  0  0  0  0
 26 27  2  0  0  0  0
 27 28  1  0  0  0  0
 28 29  1  0  0  0  0
M  END
>  <COMPND>
    /Users/00mac/Documents/LamNet/model/LamNet/data/rbfe/syk-nnp/CHEMBL3265017/CHEMBL3265017.pdb 

>  <AUTHOR>
    GENERATED BY OPEN BABEL 3.1.0

>  <MASTER>
        0    0    0    0    0    0    0    0   29    0   29    0

$$$$
