REMARK  Name = G12_out.pdbqt
REMARK  2 active torsions:
REMARK  status: ('A' for Active; 'I' for Inactive)
REMARK    1  A    between atoms: C9_9  and  N1_11
REMARK    2  A    between atoms: C10_10  and  N2_15
REMARK                            x       y       z     vdW  Elec       q    Type
REMARK                         _______ _______ _______ _____ _____    ______ ____
ROOT
ATOM      1  C1  UNL d   1       0.536  -0.167  -1.677  0.00  0.00    +0.013 C 
ATOM      2  C2  UNL d   1       1.574   0.028   0.597  0.00  0.00    +0.013 C 
ATOM      3  C3  UNL d   1      -1.745   0.097  -0.659  0.00  0.00    +0.013 C 
ATOM      4  C4  UNL d   1      -0.701   0.293   1.617  0.00  0.00    +0.013 C 
ATOM      5  C5  UNL d   1       1.119   0.821  -0.645  0.00  0.00    +0.018 C 
ATOM      6  C6  UNL d   1      -0.664  -0.927  -1.071  0.00  0.00    +0.018 C 
ATOM      7  C7  UNL d   1       0.382  -0.730   1.215  0.00  0.00    +0.018 C 
ATOM      8  C8  UNL d   1      -1.171   1.088   0.379  0.00  0.00    +0.018 C 
ATOM      9  C9  UNL d   1       0.007   1.826  -0.284  0.00  0.00    +0.197 C 
ATOM     10  C10 UNL d   1      -0.248  -1.699   0.195  0.00  0.00    +0.197 C 
ENDROOT
BRANCH   9  11
ATOM     11  N1  UNL d   1       0.534   2.884   0.620  0.00  0.00    -0.074 N 
ATOM     12  C11 UNL d   1      -0.195   2.857   1.968  0.00  0.00    +0.272 C 
ATOM     13  C12 UNL d   1       0.341   4.273  -0.003  0.00  0.00    +0.272 C 
ATOM     14  C13 UNL d   1       2.031   2.677   0.879  0.00  0.00    +0.272 C 
ENDBRANCH   9  11
BRANCH  10  15
ATOM     15  N2  UNL d   1       0.706  -2.788  -0.148  0.00  0.00    -0.074 N 
ATOM     16  C14 UNL d   1       2.014  -2.630   0.636  0.00  0.00    +0.272 C 
ATOM     17  C15 UNL d   1       1.039  -2.764  -1.646  0.00  0.00    +0.272 C 
ATOM     18  C16 UNL d   1       0.108  -4.159   0.189  0.00  0.00    +0.272 C 
ENDBRANCH  10  15
TORSDOF 2
