REMARK  Name = 11b_out.pdbqt
REMARK  1 active torsions:
REMARK  status: ('A' for Active; 'I' for Inactive)
REMARK    1  A    between atoms: C7_7  and  N1_8
REMARK                            x       y       z     vdW  Elec       q    Type
REMARK                         _______ _______ _______ _____ _____    ______ ____
ROOT
ATOM      1  C1  <0> d   1      -0.947  -0.739   0.616  0.00  0.00    +0.005 C 
ATOM      2  C2  <0> d   1       0.057  -1.606  -0.159  0.00  0.00    +0.007 C 
ATOM      3  C3  <0> d   1       1.133  -0.771   1.777  0.00  0.00    +0.011 C 
ATOM      4  C4  <0> d   1       0.618   1.214   0.547  0.00  0.00    +0.037 C 
ATOM      5  C5  <0> d   1      -0.037   0.164   1.468  0.00  0.00    -0.012 C 
ATOM      6  C6  <0> d   1       1.418  -1.051   0.298  0.00  0.00    +0.016 C 
ATOM      7  C7  <0> d   1       1.662   0.382  -0.210  0.00  0.00    +0.188 C 
ENDROOT
BRANCH   7   8
ATOM      8  N1  <0> d   1       1.498   0.512  -1.669  0.00  0.00    -0.075 N 
ATOM      9  H12 <0> d   1       0.821   1.248  -1.909  0.00  0.00    +0.274 HD
ATOM     10  H13 <0> d   1       1.160  -0.366  -2.088  0.00  0.00    +0.274 HD
ATOM     11  H14 <0> d   1       2.388   0.749  -2.129  0.00  0.00    +0.274 HD
ENDBRANCH   7   8
TORSDOF 1
