REMARK  Name = G0_out.pdbqt
REMARK  6 active torsions:
REMARK  status: ('A' for Active; 'I' for Inactive)
REMARK    1  A    between atoms: C1_1  and  C9_5
REMARK    2  A    between atoms: C15_9  and  C10_12
REMARK    3  A    between atoms: C15_9  and  C18_19
REMARK    4  A    between atoms: C18_19  and  C19_20
REMARK    5  A    between atoms: C19_20  and  C20_21
REMARK    6  A    between atoms: C20_21  and  N2_22
REMARK                            x       y       z     vdW  Elec       q    Type
REMARK                         _______ _______ _______ _____ _____    ______ ____
ROOT
ATOM      1  C2  CB8 d   1       7.412  38.577  29.186  0.00  0.00    +0.023 C 
ATOM      2  C3  CB8 d   1       8.299  38.939  30.201  0.00  0.00    +0.012 C 
ATOM      3  C8  CB8 d   1       9.255  37.817  27.797  0.00  0.00    +0.032 C 
ATOM      4  C9  CB8 d   1       7.887  38.018  27.990  0.00  0.00    +0.045 C 
ATOM      5  C11 CB8 d   1       9.656  38.740  29.994  0.00  0.00    -0.011 C 
ATOM      6  C12 CB8 d   1      10.122  38.186  28.810  0.00  0.00    -0.023 C 
ATOM      7  C14 CB8 d   1      11.597  38.061  28.861  0.00  0.00    +0.209 C 
ATOM      8  C15 CB8 d   1      10.813  39.032  30.905  0.00  0.00    +0.116 C 
ATOM      9  O1  CB8 d   1      11.987  38.697  30.099  0.00  0.00    -0.366 OA
ENDROOT
BRANCH   8  10
ATOM     10  C10 CB8 d   1      10.924  40.478  31.259  0.00  0.00    -0.019 C 
ATOM     11  C4  CB8 d   1      11.904  41.270  30.660  0.00  0.00    +0.013 C 
ATOM     12  C6  CB8 d   1      12.008  42.620  30.991  0.00  0.00    +0.043 C 
ATOM     13  C13 CB8 d   1      11.131  43.180  31.920  0.00  0.00    +0.116 C 
ATOM     14  C7  CB8 d   1      10.151  42.388  32.519  0.00  0.00    +0.043 C 
ATOM     15  F1  CB8 d   1      11.233  44.477  32.240  0.00  0.00    -0.206 F 
ATOM     16  C5  CB8 d   1      10.047  41.038  32.188  0.00  0.00    +0.013 C 
ENDBRANCH   8  10
BRANCH   4  17
ATOM     17  C1  CB8 d   1       6.963  37.651  26.964  0.00  0.00    +0.099 C 
ATOM     18  N1  CB8 d   1       6.213  37.352  26.130  0.00  0.00    -0.191 NA
ENDBRANCH   4  17
BRANCH   8  19
ATOM     19  C18 CB8 d   1      10.820  38.159  32.154  0.00  0.00    +0.050 C 
BRANCH  19  20
ATOM     20  C19 CB8 d   1      12.202  38.128  32.804  0.00  0.00    +0.031 C 
BRANCH  20  21
ATOM     21  C20 CB8 d   1      12.189  38.855  34.141  0.00  0.00    +0.234 C 
BRANCH  21  22
ATOM     22  N2  CB8 d   1      13.380  39.733  34.227  0.00  0.00    -0.079 N 
ATOM     23  C16 CB8 d   1      14.259  39.645  33.003  0.00  0.00    +0.269 C 
ATOM     24  C17 CB8 d   1      13.024  41.167  34.539  0.00  0.00    +0.269 C 
ATOM     25  H22 CB8 d   1      13.960  39.404  35.019  0.00  0.00    +0.278 HD
ENDBRANCH  21  22
ENDBRANCH  20  21
ENDBRANCH  19  20
ENDBRANCH   8  19
TORSDOF 6
