REMARK  Name = G5_out.pdbqt
REMARK  2 active torsions:
REMARK  status: ('A' for Active; 'I' for Inactive)
REMARK    1  A    between atoms: C9_9  and  N1_13
REMARK    2  A    between atoms: C10_10  and  N2_17
REMARK                            x       y       z     vdW  Elec       q    Type
REMARK                         _______ _______ _______ _____ _____    ______ ____
ROOT
ATOM      1  C1  UNL d   1      -1.062   3.965  -1.849  0.00  0.00    +0.018 C 
ATOM      2  C2  UNL d   1      -1.401   4.098   0.640  0.00  0.00    +0.048 C 
ATOM      3  C3  UNL d   1      -1.746   1.914  -0.562  0.00  0.00    +0.048 C 
ATOM      4  C4  UNL d   1       0.918   4.262  -0.327  0.00  0.00    +0.048 C 
ATOM      5  C5  UNL d   1       0.572   2.078  -1.530  0.00  0.00    +0.048 C 
ATOM      6  C6  UNL d   1       0.236   2.210   0.963  0.00  0.00    +0.078 C 
ATOM      7  C7  UNL d   1      -1.919   3.448  -0.667  0.00  0.00    -0.039 C 
ATOM      8  C8  UNL d   1       0.432   3.616  -1.648  0.00  0.00    -0.039 C 
ATOM      9  C9  UNL d   1       0.080   3.735   0.850  0.00  0.00    +0.132 C 
ATOM     10  C10 UNL d   1      -0.263   1.570  -0.342  0.00  0.00    +0.132 C 
ATOM     11  C11 UNL d   1      -3.392   3.802  -0.886  0.00  0.00    +0.015 C 
ATOM     12  C12 UNL d   1       1.261   4.134  -2.826  0.00  0.00    +0.015 C 
ENDROOT
BRANCH   9  13
ATOM     13  N1  UNL d   1       0.559   4.366   2.108  0.00  0.00    -0.070 N 
ATOM     14  C13 UNL d   1      -0.538   5.240   2.729  0.00  0.00    +0.272 C 
ATOM     15  C14 UNL d   1       1.783   5.250   1.839  0.00  0.00    +0.272 C 
ATOM     16  C15 UNL d   1       0.957   3.296   3.134  0.00  0.00    +0.272 C 
ENDBRANCH   9  13
BRANCH  10  17
ATOM     17  N2  UNL d   1      -0.118   0.093  -0.246  0.00  0.00    -0.070 N 
ATOM     18  C16 UNL d   1       0.349  -0.314   1.158  0.00  0.00    +0.272 C 
ATOM     19  C17 UNL d   1       0.910  -0.420  -1.261  0.00  0.00    +0.272 C 
ATOM     20  C18 UNL d   1      -1.456  -0.603  -0.525  0.00  0.00    +0.272 C 
ENDBRANCH  10  17
TORSDOF 2
