/inspire/ssd/ws-f4d69b29-e0a5-44e6-bd92-acf4de9990f0/public-project/hurenling-241310070200/LamNet/model/LamNet/data/rbfe/syk-nnp/CHEMBL3265009/CHEMBL3265009.pdb
 OpenBabel01062511123D

 30 33  0  0  0  0  0  0  0  0999 V2000
   44.3280   28.8020   47.0850 C   0  0  0  0  0  0  0  0  0  0  0  0
   44.7090   29.5510   48.2320 O   0  0  0  0  0  0  0  0  0  0  0  0
   46.0560   29.8040   48.3180 C   0  0  0  0  0  0  0  0  0  0  0  0
   46.8380   29.0440   49.1890 C   0  0  0  0  0  0  0  0  0  0  0  0
   48.2010   29.3060   49.3210 C   0  0  0  0  0  0  0  0  0  0  0  0
   48.8020   30.3380   48.5960 C   0  0  0  0  0  0  0  0  0  0  0  0
   50.1730   30.5780   48.8100 N   0  0  0  0  0  0  0  0  0  0  0  0
   51.1200   31.4630   48.2580 C   0  0  0  0  0  0  0  0  0  0  0  0
   50.7860   32.2880   47.2260 N   0  0  0  0  0  0  0  0  0  0  0  0
   51.6860   33.1800   46.7240 C   0  0  0  0  0  0  0  0  0  0  0  0
   52.9850   33.2470   47.2200 C   0  0  0  0  0  0  0  0  0  0  0  0
   53.3180   32.4340   48.2650 N   0  0  0  0  0  0  0  0  0  0  0  0
   54.4630   32.3290   49.0000 C   0  0  0  0  0  0  0  0  0  0  0  0
   54.1500   31.4320   50.0140 C   0  0  0  0  0  0  0  0  0  0  0  0
   52.9630   30.8820   49.8890 N   0  0  0  0  0  0  0  0  0  0  0  0
   52.4090   31.5200   48.8250 C   0  0  0  0  0  0  0  0  0  0  0  0
   51.2120   34.0950   45.6440 C   0  0  0  0  0  0  0  0  0  0  0  0
   52.1090   34.5740   44.6760 C   0  0  0  0  0  0  0  0  0  0  0  0
   51.6740   35.3960   43.6400 C   0  0  0  0  0  0  0  0  0  0  0  0
   50.3310   35.7490   43.5480 C   0  0  0  0  0  0  0  0  0  0  0  0
   49.8650   36.6200   42.4200 C   0  0  0  0  0  0  0  0  0  0  0  0
   49.4140   35.3050   44.5080 C   0  0  0  0  0  0  0  0  0  0  0  0
   49.8680   34.4920   45.5560 C   0  0  0  0  0  0  0  0  0  0  0  0
   47.9680   35.6930   44.4180 C   0  0  0  0  0  0  0  0  0  0  0  0
   47.1000   35.0620   43.8220 O   0  0  0  0  0  0  0  0  0  0  0  0
   47.7170   36.8270   45.0720 N   0  0  0  0  0  0  0  0  0  0  0  0
   48.0090   31.0940   47.7230 C   0  0  0  0  0  0  0  0  0  0  0  0
   46.6370   30.8380   47.5720 C   0  0  0  0  0  0  0  0  0  0  0  0
   45.8710   31.6080   46.7190 O   0  0  0  0  0  0  0  0  0  0  0  0
   46.5620   32.5930   46.0430 C   0  0  0  0  0  0  0  0  0  0  0  0
  1  2  1  0  0  0  0
  2  3  1  0  0  0  0
  3  4  2  0  0  0  0
  3 28  1  0  0  0  0
  4  5  1  0  0  0  0
  5  6  2  0  0  0  0
  6  7  1  0  0  0  0
  6 27  1  0  0  0  0
  7  8  1  0  0  0  0
  8  9  2  0  0  0  0
  8 16  1  0  0  0  0
  9 10  1  0  0  0  0
 10 11  2  0  0  0  0
 10 17  1  0  0  0  0
 11 12  1  0  0  0  0
 12 13  1  0  0  0  0
 12 16  1  0  0  0  0
 13 14  2  0  0  0  0
 14 15  1  0  0  0  0
 15 16  2  0  0  0  0
 17 18  2  0  0  0  0
 17 23  1  0  0  0  0
 18 19  1  0  0  0  0
 19 20  2  0  0  0  0
 20 21  1  0  0  0  0
 20 22  1  0  0  0  0
 22 23  2  0  0  0  0
 22 24  1  0  0  0  0
 24 25  2  0  0  0  0
 24 26  1  0  0  0  0
 27 28  2  0  0  0  0
 28 29  1  0  0  0  0
 29 30  1  0  0  0  0
M  END
>  <COMPND>
    /Users/00mac/Documents/LamNet/model/LamNet/data/rbfe/syk-nnp/CHEMBL3265009/CHEMBL3265009.pdb 

>  <AUTHOR>
    GENERATED BY OPEN BABEL 3.1.0

>  <MASTER>
        0    0    0    0    0    0    0    0   30    0   30    0

$$$$
