REMARK  Name = G6_out.pdbqt
REMARK  3 active torsions:
REMARK  status: ('A' for Active; 'I' for Inactive)
REMARK    1  A    between atoms: C4_1  and  C1_2
REMARK    2  A    between atoms: C4_1  and  C5_5
REMARK    3  A    between atoms: C5_5  and  C6_6
REMARK                            x       y       z     vdW  Elec       q    Type
REMARK                         _______ _______ _______ _____ _____    ______ ____
ROOT
ATOM      1  C4  TEM d   1      -1.161  -0.201  -2.872  0.00  0.00    +0.113 C 
ENDROOT
BRANCH   1   2
ATOM      2  C1  TEM d   1      -0.311   0.492  -3.940  0.00  0.00    +0.172 C 
ATOM      3  O1  TEM d   1       0.408  -0.263  -4.653  0.00  0.00    -0.648 OA
ATOM      4  O2  TEM d   1      -0.425   1.751  -3.965  0.00  0.00    -0.648 OA
ENDBRANCH   1   2
BRANCH   1   5
ATOM      5  C5  TEM d   1      -1.019   0.349  -1.454  0.00  0.00    +0.014 C 
BRANCH   5   6
ATOM      6  C6  TEM d   1      -0.069  -0.453  -0.541  0.00  0.00    -0.022 C 
ATOM      7  C2  TEM d   1      -0.192  -0.049   0.929  0.00  0.00    +0.009 C 
ATOM      8  C3  TEM d   1       1.376  -0.266  -1.010  0.00  0.00    +0.009 C 
ENDBRANCH   5   6
ENDBRANCH   1   5
TORSDOF 3
