REMARK  Name = G4_out.pdbqt
REMARK  2 active torsions:
REMARK  status: ('A' for Active; 'I' for Inactive)
REMARK    1  A    between atoms: C1_1  and  N2_16
REMARK    2  A    between atoms: C11_11  and  N3_19
REMARK                            x       y       z     vdW  Elec       q    Type
REMARK                         _______ _______ _______ _____ _____    ______ ____
ROOT
ATOM      1  C1  MOL d   1      -0.217   1.906  -0.704  0.00  0.00    +0.027 C 
ATOM      2  C2  MOL d   1       0.089   0.591  -0.378  0.00  0.00    +0.059 C 
ATOM      3  C3  MOL d   1       0.178  -0.344  -1.412  0.00  0.00    +0.045 C 
ATOM      4  C4  MOL d   1      -0.032   0.015  -2.776  0.00  0.00    -0.008 C 
ATOM      5  C5  MOL d   1      -0.341   1.375  -3.065  0.00  0.00    +0.016 C 
ATOM      6  C6  MOL d   1      -0.434   2.303  -2.057  0.00  0.00    +0.030 C 
ATOM      7  C7  MOL d   1       0.070  -0.957  -3.773  0.00  0.00    +0.027 C 
ATOM      8  C8  MOL d   1       0.376  -2.276  -3.435  0.00  0.00    -0.008 C 
ATOM      9  C9  MOL d   1       0.584  -2.624  -2.069  0.00  0.00    +0.045 C 
ATOM     10  C10 MOL d   1       0.893  -3.931  -1.677  0.00  0.00    +0.059 C 
ATOM     11  C11 MOL d   1       0.996  -4.904  -2.657  0.00  0.00    +0.027 C 
ATOM     12  C12 MOL d   1       0.796  -4.598  -4.029  0.00  0.00    +0.030 C 
ATOM     13  C13 MOL d   1       0.495  -3.313  -4.409  0.00  0.00    +0.016 C 
ATOM     14  N1  MOL d   1       0.477  -1.647  -1.110  0.00  0.00    -0.355 N 
ATOM     15  H12 MOL d   1       0.633  -1.928  -0.129  0.00  0.00    +0.166 HD
ENDROOT
BRANCH   1  16
ATOM     16  N2  MOL d   1      -0.315   2.855   0.279  0.00  0.00    -0.399 N 
ATOM     17  H10 MOL d   1       0.377   2.893   1.042  0.00  0.00    +0.156 HD
ATOM     18  H11 MOL d   1      -1.082   3.542   0.272  0.00  0.00    +0.156 HD
ENDBRANCH   1  16
BRANCH  11  19
ATOM     19  N3  MOL d   1       1.295  -6.190  -2.316  0.00  0.00    -0.399 N 
ATOM     20  H8  MOL d   1       2.231  -6.438  -1.966  0.00  0.00    +0.156 HD
ATOM     21  H9  MOL d   1       0.587  -6.934  -2.405  0.00  0.00    +0.156 HD
ENDBRANCH  11  19
TORSDOF 2
