REMARK  Name = g4_out.pdbqt
REMARK  5 active torsions:
REMARK  status: ('A' for Active; 'I' for Inactive)
REMARK    1  A    between atoms: C9_1  and  C7_2
REMARK    2  A    between atoms: C9_1  and  C10_7
REMARK    3  A    between atoms: C7_2  and  C1_3
REMARK    4  A    between atoms: C10_7  and  C8_9
REMARK    5  A    between atoms: C8_9  and  C3_10
REMARK                            x       y       z     vdW  Elec       q    Type
REMARK                         _______ _______ _______ _____ _____    ______ ____
ROOT
ATOM      1  C9  UNL d   1       1.061   0.518  -1.894  0.00  0.00    +0.008 C 
ENDROOT
BRANCH   1   2
ATOM      2  C10 UNL d   1      -0.271   0.107  -1.230  0.00  0.00    -0.008 C 
ATOM      3  C6  UNL d   1      -0.123  -0.043   0.288  0.00  0.00    +0.010 C 
BRANCH   2   4
ATOM      4  C8  UNL d   1      -0.783  -1.215  -1.825  0.00  0.00    +0.117 C 
BRANCH   4   5
ATOM      5  C3  UNL d   1      -0.983  -1.245  -3.345  0.00  0.00    +0.172 C 
ATOM      6  O1  UNL d   1      -1.960  -0.556  -3.756  0.00  0.00    -0.648 OA
ATOM      7  O2  UNL d   1      -0.173  -1.957  -4.000  0.00  0.00    -0.648 OA
ENDBRANCH   4   5
ENDBRANCH   2   4
ENDBRANCH   1   2
BRANCH   1   8
ATOM      8  C7  UNL d   1       0.957   1.803  -2.721  0.00  0.00    +0.028 C 
BRANCH   8   9
ATOM      9  C1  UNL d   1       1.456   1.588  -4.123  0.00  0.00    -0.025 C 
ATOM     10  C2  UNL d   1       0.774   1.758  -5.272  0.00  0.00    -0.091 C 
ATOM     11  C4  UNL d   1       1.332   1.525  -6.647  0.00  0.00    +0.042 C 
ATOM     12  C5  UNL d   1      -0.664   2.202  -5.249  0.00  0.00    +0.042 C 
ENDBRANCH   8   9
ENDBRANCH   1   8
TORSDOF 5
