REMARK  Name = G1_out.pdbqt
REMARK  3 active torsions:
REMARK  status: ('A' for Active; 'I' for Inactive)
REMARK    1  A    between atoms: C1_1  and  C3_3
REMARK    2  A    between atoms: C2_2  and  C5_6
REMARK    3  A    between atoms: C5_6  and  C6_7
REMARK                            x       y       z     vdW  Elec       q    Type
REMARK                         _______ _______ _______ _____ _____    ______ ____
ROOT
ATOM      1  C1  OA- d   1       1.935  -0.166  -2.801  0.00  0.00    +0.080 C 
ATOM      2  C2  OA- d   1       0.683  -0.641  -2.855  0.00  0.00    -0.020 C 
ENDROOT
BRANCH   1   3
ATOM      3  C3  OA- d   1       2.720   0.194  -4.071  0.00  0.00    +0.198 C 
ATOM      4  O1  OA- d   1       2.584  -0.571  -5.066  0.00  0.00    -0.645 OA
ATOM      5  O2  OA- d   1       3.426   1.240  -3.959  0.00  0.00    -0.645 OA
ENDBRANCH   1   3
BRANCH   2   6
ATOM      6  C5  OA- d   1      -0.116  -1.007  -1.635  0.00  0.00    +0.027 C 
BRANCH   6   7
ATOM      7  C6  OA- d   1       0.612  -0.600  -0.353  0.00  0.00    -0.001 C 
ATOM      8  C4  OA- d   1      -0.315   0.130   0.604  0.00  0.00    +0.005 C 
ENDBRANCH   6   7
ENDBRANCH   2   6
TORSDOF 3
