/inspire/ssd/ws-f4d69b29-e0a5-44e6-bd92-acf4de9990f0/public-project/hurenling-241310070200/LamNet/model/LamNet/data/rbfe/syk-nnp/CHEMBL3265016/CHEMBL3265016.pdb
 OpenBabel01062511123D

 29 33  0  0  0  0  0  0  0  0999 V2000
   44.3320   28.8370   47.0690 C   0  0  0  0  0  0  0  0  0  0  0  0
   44.7150   29.5800   48.2150 O   0  0  0  0  0  0  0  0  0  0  0  0
   46.0630   29.8290   48.3180 C   0  0  0  0  0  0  0  0  0  0  0  0
   46.8390   29.0710   49.1850 C   0  0  0  0  0  0  0  0  0  0  0  0
   48.1960   29.3290   49.3200 C   0  0  0  0  0  0  0  0  0  0  0  0
   48.8090   30.3550   48.5930 C   0  0  0  0  0  0  0  0  0  0  0  0
   50.1930   30.5770   48.8340 N   0  0  0  0  0  0  0  0  0  0  0  0
   51.1230   31.4960   48.2730 C   0  0  0  0  0  0  0  0  0  0  0  0
   50.7680   32.3150   47.2390 N   0  0  0  0  0  0  0  0  0  0  0  0
   51.7030   33.1740   46.7280 C   0  0  0  0  0  0  0  0  0  0  0  0
   53.0090   33.2170   47.2120 C   0  0  0  0  0  0  0  0  0  0  0  0
   53.3350   32.4270   48.2700 N   0  0  0  0  0  0  0  0  0  0  0  0
   54.4880   32.3140   49.0000 C   0  0  0  0  0  0  0  0  0  0  0  0
   54.1790   31.4050   50.0390 C   0  0  0  0  0  0  0  0  0  0  0  0
   52.9650   30.8940   49.8830 N   0  0  0  0  0  0  0  0  0  0  0  0
   52.4260   31.5440   48.8400 C   0  0  0  0  0  0  0  0  0  0  0  0
   51.2320   34.0950   45.6290 C   0  0  0  0  0  0  0  0  0  0  0  0
   52.1420   34.5730   44.6750 C   0  0  0  0  0  0  0  0  0  0  0  0
   51.7500   35.3950   43.6200 C   0  0  0  0  0  0  0  0  0  0  0  0
   50.4060   35.7550   43.5180 C   0  0  0  0  0  0  0  0  0  0  0  0
   49.6260   36.5510   42.5850 C   0  0  0  0  0  0  0  0  0  0  0  0
   48.3350   36.5290   43.0400 C   0  0  0  0  0  0  0  0  0  0  0  0
   48.2510   35.8040   44.1700 N   0  0  0  0  0  0  0  0  0  0  0  0
   49.4810   35.2890   44.5110 C   0  0  0  0  0  0  0  0  0  0  0  0
   49.8670   34.4680   45.5760 C   0  0  0  0  0  0  0  0  0  0  0  0
   48.0360   31.1200   47.6960 C   0  0  0  0  0  0  0  0  0  0  0  0
   46.6480   30.8530   47.5620 C   0  0  0  0  0  0  0  0  0  0  0  0
   45.8430   31.5880   46.7080 O   0  0  0  0  0  0  0  0  0  0  0  0
   46.3670   32.5870   45.8520 C   0  0  0  0  0  0  0  0  0  0  0  0
  1  2  1  0  0  0  0
  2  3  1  0  0  0  0
  3  4  2  0  0  0  0
  3 27  1  0  0  0  0
  4  5  1  0  0  0  0
  5  6  2  0  0  0  0
  6  7  1  0  0  0  0
  6 26  1  0  0  0  0
  7  8  1  0  0  0  0
  8  9  2  0  0  0  0
  8 16  1  0  0  0  0
  9 10  1  0  0  0  0
 10 11  2  0  0  0  0
 10 17  1  0  0  0  0
 11 12  1  0  0  0  0
 12 13  1  0  0  0  0
 12 16  1  0  0  0  0
 13 14  2  0  0  0  0
 14 15  1  0  0  0  0
 15 16  2  0  0  0  0
 17 18  2  0  0  0  0
 17 25  1  0  0  0  0
 18 19  1  0  0  0  0
 19 20  2  0  0  0  0
 20 21  1  0  0  0  0
 20 24  1  0  0  0  0
 21 22  2  0  0  0  0
 22 23  1  0  0  0  0
 23 24  2  0  0  0  0
 24 25  1  0  0  0  0
 26 27  2  0  0  0  0
 27 28  1  0  0  0  0
 28 29  1  0  0  0  0
M  END
>  <COMPND>
    /Users/00mac/Documents/LamNet/model/LamNet/data/rbfe/syk-nnp/CHEMBL3265016/CHEMBL3265016.pdb 

>  <AUTHOR>
    GENERATED BY OPEN BABEL 3.1.0

>  <MASTER>
        0    0    0    0    0    0    0    0   29    0   29    0

$$$$
