REMARK  Name = g1_out.pdbqt
REMARK  4 active torsions:
REMARK  status: ('A' for Active; 'I' for Inactive)
REMARK    1  A    between atoms: C3_1  and  C1_2
REMARK    2  A    between atoms: C3_1  and  C5_5
REMARK    3  A    between atoms: C5_5  and  C6_6
REMARK    4  A    between atoms: C6_6  and  C4_7
REMARK                            x       y       z     vdW  Elec       q    Type
REMARK                         _______ _______ _______ _____ _____    ______ ____
ROOT
ATOM      1  C3  UNL d   1       1.735  -3.099   0.805  0.00  0.00    +0.113 C 
ENDROOT
BRANCH   1   2
ATOM      2  C1  UNL d   1       0.991  -4.110   1.684  0.00  0.00    +0.172 C 
ATOM      3  O1  UNL d   1       1.564  -5.233   1.784  0.00  0.00    -0.648 OA
ATOM      4  O2  UNL d   1      -0.099  -3.720   2.188  0.00  0.00    -0.648 OA
ENDBRANCH   1   2
BRANCH   1   5
ATOM      5  C5  UNL d   1       1.241  -2.949  -0.630  0.00  0.00    +0.010 C 
BRANCH   5   6
ATOM      6  C6  UNL d   1       0.511  -1.622  -0.860  0.00  0.00    +0.000 C 
BRANCH   6   7
ATOM      7  C4  UNL d   1       0.591  -0.726   0.376  0.00  0.00    -0.005 C 
ATOM      8  C2  UNL d   1      -0.097   0.610   0.141  0.00  0.00    +0.005 C 
ENDBRANCH   6   7
ENDBRANCH   5   6
ENDBRANCH   1   5
TORSDOF 4
