/inspire/ssd/ws-f4d69b29-e0a5-44e6-bd92-acf4de9990f0/public-project/hurenling-241310070200/LamNet/model/LamNet/data/rbfe/syk-nnp/CHEMBL3265030n/CHEMBL3265030n.pdb
 OpenBabel01062511123D

 31 36  0  0  1  0  0  0  0  0999 V2000
   42.5210   27.4780   49.8060 C   0  0  0  0  0  0  0  0  0  0  0  0
   42.9420   28.5380   48.7840 C   0  0  1  0  0  0  0  0  0  0  0  0
   41.8330   28.9520   48.0190 O   0  0  0  0  0  0  0  0  0  0  0  0
   43.7850   29.6700   49.3460 C   0  0  0  0  0  0  0  0  0  0  0  0
   44.7300   29.5420   48.2160 N   0  0  0  0  0  0  0  0  0  0  0  0
   44.1780   28.1910   47.9730 C   0  0  0  0  0  0  0  0  0  0  0  0
   46.0940   29.8350   48.2990 C   0  0  0  0  0  0  0  0  0  0  0  0
   46.6760   30.8590   47.5530 C   0  0  0  0  0  0  0  0  0  0  0  0
   48.0340   31.1240   47.7060 C   0  0  0  0  0  0  0  0  0  0  0  0
   48.8020   30.3680   48.6080 C   0  0  0  0  0  0  0  0  0  0  0  0
   50.1640   30.6060   48.8530 N   0  0  0  0  0  0  0  0  0  0  0  0
   51.1020   31.4940   48.2920 C   0  0  0  0  0  0  0  0  0  0  0  0
   50.7540   32.3130   47.2620 N   0  0  0  0  0  0  0  0  0  0  0  0
   51.6720   33.1650   46.7230 C   0  0  0  0  0  0  0  0  0  0  0  0
   52.9810   33.2130   47.2060 C   0  0  0  0  0  0  0  0  0  0  0  0
   53.3110   32.4200   48.2640 N   0  0  0  0  0  0  0  0  0  0  0  0
   54.4630   32.3050   48.9950 C   0  0  0  0  0  0  0  0  0  0  0  0
   54.1710   31.3810   50.0050 C   0  0  0  0  0  0  0  0  0  0  0  0
   52.9600   30.8730   49.8940 N   0  0  0  0  0  0  0  0  0  0  0  0
   52.3990   31.5330   48.8440 C   0  0  0  0  0  0  0  0  0  0  0  0
   51.2000   34.0790   45.6310 C   0  0  0  0  0  0  0  0  0  0  0  0
   52.1100   34.5620   44.6730 C   0  0  0  0  0  0  0  0  0  0  0  0
   51.7230   35.3900   43.6180 C   0  0  0  0  0  0  0  0  0  0  0  0
   50.3750   35.7510   43.5270 C   0  0  0  0  0  0  0  0  0  0  0  0
   49.5740   36.5300   42.6390 C   0  0  0  0  0  0  0  0  0  0  0  0
   48.3250   36.5500   43.0250 N   0  0  0  0  0  0  0  0  0  0  0  0
   48.2440   35.8170   44.1460 N   0  0  0  0  0  0  0  0  0  0  0  0
   49.4610   35.2840   44.5060 C   0  0  0  0  0  0  0  0  0  0  0  0
   49.8460   34.4550   45.5620 C   0  0  0  0  0  0  0  0  0  0  0  0
   48.2000   29.3380   49.3350 C   0  0  0  0  0  0  0  0  0  0  0  0
   46.8500   29.0770   49.1830 C   0  0  0  0  0  0  0  0  0  0  0  0
  2  1  1  1  0  0  0
  2  3  1  0  0  0  0
  2  4  1  0  0  0  0
  2  6  1  0  0  0  0
  4  5  1  0  0  0  0
  5  6  1  0  0  0  0
  5  7  1  0  0  0  0
  7  8  2  0  0  0  0
  7 31  1  0  0  0  0
  8  9  1  0  0  0  0
  9 10  2  0  0  0  0
 10 11  1  0  0  0  0
 10 30  1  0  0  0  0
 11 12  1  0  0  0  0
 12 13  2  0  0  0  0
 12 20  1  0  0  0  0
 13 14  1  0  0  0  0
 14 15  2  0  0  0  0
 14 21  1  0  0  0  0
 15 16  1  0  0  0  0
 16 17  1  0  0  0  0
 16 20  1  0  0  0  0
 17 18  2  0  0  0  0
 18 19  1  0  0  0  0
 19 20  2  0  0  0  0
 21 22  2  0  0  0  0
 21 29  1  0  0  0  0
 22 23  1  0  0  0  0
 23 24  2  0  0  0  0
 24 25  1  0  0  0  0
 24 28  1  0  0  0  0
 25 26  2  0  0  0  0
 26 27  1  0  0  0  0
 27 28  2  0  0  0  0
 28 29  1  0  0  0  0
 30 31  2  0  0  0  0
M  END
>  <COMPND>
    /Users/00mac/Documents/LamNet/model/LamNet/data/rbfe/syk-nnp/CHEMBL3265030n/CHEMBL3265030n.pdb 

>  <AUTHOR>
    GENERATED BY OPEN BABEL 3.1.0

>  <MASTER>
        0    0    0    0    0    0    0    0   31    0   31    0

$$$$
