REMARK  Name = PMT_out.pdbqt
REMARK  3 active torsions:
REMARK  status: ('A' for Active; 'I' for Inactive)
REMARK    1  A    between atoms: N1_13  and  C16_15
REMARK    2  A    between atoms: C16_15  and  C17_16
REMARK    3  A    between atoms: C17_16  and  N2_18
REMARK                            x       y       z     vdW  Elec       q    Type
REMARK                         _______ _______ _______ _____ _____    ______ ____
ROOT
ATOM      1  C1  UNL d   1      15.304   2.648   1.231  0.00  0.00    +0.002 C 
ATOM      2  C2  UNL d   1      10.492  -2.475   3.338  0.00  0.00    +0.002 C 
ATOM      3  C3  UNL d   1      16.414   1.865   1.509  0.00  0.00    +0.002 C 
ATOM      4  C4  UNL d   1      11.470  -3.400   3.673  0.00  0.00    +0.002 C 
ATOM      5  C5  UNL d   1      14.028   2.080   1.245  0.00  0.00    +0.031 C 
ATOM      6  C6  UNL d   1      10.839  -1.314   2.642  0.00  0.00    +0.031 C 
ATOM      7  C7  UNL d   1      16.244   0.517   1.806  0.00  0.00    +0.021 C 
ATOM      8  C8  UNL d   1      12.793  -3.159   3.318  0.00  0.00    +0.021 C 
ATOM      9  C9  UNL d   1      13.820   0.713   1.531  0.00  0.00    +0.052 C 
ATOM     10  C10 UNL d   1      12.170  -1.044   2.254  0.00  0.00    +0.052 C 
ATOM     11  C11 UNL d   1      14.961  -0.058   1.827  0.00  0.00    +0.032 C 
ATOM     12  C12 UNL d   1      13.148  -1.989   2.621  0.00  0.00    +0.032 C 
ATOM     13  N1  UNL d   1      12.524   0.140   1.558  0.00  0.00    -0.343 N 
ATOM     14  S1  UNL d   1      14.868  -1.799   2.199  0.00  0.00    -0.086 S 
ENDROOT
BRANCH  13  15
ATOM     15  C16 UNL d   1      11.449   0.867   0.870  0.00  0.00    +0.162 C 
BRANCH  15  16
ATOM     16  C17 UNL d   1      11.397   0.535  -0.620  0.00  0.00    +0.201 C 
ATOM     17  C13 UNL d   1      10.003   0.634  -1.225  0.00  0.00    +0.042 C 
BRANCH  16  18
ATOM     18  N2  UNL d   1      11.911  -0.847  -0.837  0.00  0.00    -0.073 N 
ATOM     19  C14 UNL d   1      10.821  -1.809  -1.234  0.00  0.00    +0.269 C 
ATOM     20  C15 UNL d   1      13.061  -0.886  -1.810  0.00  0.00    +0.269 C 
ATOM     21  H21 UNL d   1      12.283  -1.186   0.065  0.00  0.00    +0.279 HD
ENDBRANCH  16  18
ENDBRANCH  15  16
ENDBRANCH  13  15
TORSDOF 3
