/inspire/ssd/ws-f4d69b29-e0a5-44e6-bd92-acf4de9990f0/public-project/hurenling-241310070200/LamNet/model/LamNet/data/rbfe/syk-nnp/CHEMBL3265024/CHEMBL3265024.pdb
 OpenBabel01062511123D

 31 35  0  0  0  0  0  0  0  0999 V2000
   44.3320   28.8530   47.0510 C   0  0  0  0  0  0  0  0  0  0  0  0
   44.7120   29.5990   48.1980 O   0  0  0  0  0  0  0  0  0  0  0  0
   46.0610   29.8450   48.3040 C   0  0  0  0  0  0  0  0  0  0  0  0
   46.8320   29.0880   49.1760 C   0  0  0  0  0  0  0  0  0  0  0  0
   48.1880   29.3440   49.3150 C   0  0  0  0  0  0  0  0  0  0  0  0
   48.8070   30.3650   48.5880 C   0  0  0  0  0  0  0  0  0  0  0  0
   50.1880   30.5860   48.8340 N   0  0  0  0  0  0  0  0  0  0  0  0
   51.1220   31.5020   48.2740 C   0  0  0  0  0  0  0  0  0  0  0  0
   50.7660   32.3230   47.2390 N   0  0  0  0  0  0  0  0  0  0  0  0
   51.7120   33.1720   46.7260 C   0  0  0  0  0  0  0  0  0  0  0  0
   53.0130   33.2110   47.2130 C   0  0  0  0  0  0  0  0  0  0  0  0
   53.3370   32.4240   48.2730 N   0  0  0  0  0  0  0  0  0  0  0  0
   54.4870   32.3160   49.0070 C   0  0  0  0  0  0  0  0  0  0  0  0
   54.1760   31.4070   50.0460 C   0  0  0  0  0  0  0  0  0  0  0  0
   52.9610   30.8970   49.8870 N   0  0  0  0  0  0  0  0  0  0  0  0
   52.4240   31.5490   48.8430 C   0  0  0  0  0  0  0  0  0  0  0  0
   51.2600   34.0860   45.6210 C   0  0  0  0  0  0  0  0  0  0  0  0
   52.1830   34.5620   44.6640 C   0  0  0  0  0  0  0  0  0  0  0  0
   51.7590   35.3860   43.6200 C   0  0  0  0  0  0  0  0  0  0  0  0
   50.4230   35.7420   43.5280 C   0  0  0  0  0  0  0  0  0  0  0  0
   50.0350   36.5640   42.4990 O   0  0  0  0  0  0  0  0  0  0  0  0
   48.6600   36.3930   42.0750 C   0  0  0  0  0  0  0  0  0  0  0  0
   47.5990   36.2560   43.2260 C   0  0  0  0  0  0  0  0  0  0  0  0
   46.4220   36.5960   43.1340 O   0  0  0  0  0  0  0  0  0  0  0  0
   48.1600   35.6900   44.3270 N   0  0  0  0  0  0  0  0  0  0  0  0
   49.4970   35.3110   44.4580 C   0  0  0  0  0  0  0  0  0  0  0  0
   49.9070   34.4860   45.5160 C   0  0  0  0  0  0  0  0  0  0  0  0
   48.0390   31.1300   47.6830 C   0  0  0  0  0  0  0  0  0  0  0  0
   46.6510   30.8660   47.5470 C   0  0  0  0  0  0  0  0  0  0  0  0
   45.8510   31.6020   46.6880 O   0  0  0  0  0  0  0  0  0  0  0  0
   46.3800   32.5950   45.8290 C   0  0  0  0  0  0  0  0  0  0  0  0
  1  2  1  0  0  0  0
  2  3  1  0  0  0  0
  3  4  2  0  0  0  0
  3 29  1  0  0  0  0
  4  5  1  0  0  0  0
  5  6  2  0  0  0  0
  6  7  1  0  0  0  0
  6 28  1  0  0  0  0
  7  8  1  0  0  0  0
  8  9  2  0  0  0  0
  8 16  1  0  0  0  0
  9 10  1  0  0  0  0
 10 11  2  0  0  0  0
 10 17  1  0  0  0  0
 11 12  1  0  0  0  0
 12 13  1  0  0  0  0
 12 16  1  0  0  0  0
 13 14  2  0  0  0  0
 14 15  1  0  0  0  0
 15 16  2  0  0  0  0
 17 18  2  0  0  0  0
 17 27  1  0  0  0  0
 18 19  1  0  0  0  0
 19 20  2  0  0  0  0
 20 21  1  0  0  0  0
 20 26  1  0  0  0  0
 21 22  1  0  0  0  0
 22 23  1  0  0  0  0
 23 24  2  0  0  0  0
 23 25  1  0  0  0  0
 25 26  1  0  0  0  0
 26 27  2  0  0  0  0
 28 29  2  0  0  0  0
 29 30  1  0  0  0  0
 30 31  1  0  0  0  0
M  END
>  <COMPND>
    /Users/00mac/Documents/LamNet/model/LamNet/data/rbfe/syk-nnp/CHEMBL3265024/CHEMBL3265024.pdb 

>  <AUTHOR>
    GENERATED BY OPEN BABEL 3.1.0

>  <MASTER>
        0    0    0    0    0    0    0    0   31    0   31    0

$$$$
