REMARK  Name = G1_out.pdbqt
REMARK  3 active torsions:
REMARK  status: ('A' for Active; 'I' for Inactive)
REMARK    1  A    between atoms: C1_1  and  C3_3
REMARK    2  A    between atoms: C2_2  and  C5_6
REMARK    3  A    between atoms: C5_6  and  C6_7
REMARK                            x       y       z     vdW  Elec       q    Type
REMARK                         _______ _______ _______ _____ _____    ______ ____
ROOT
ATOM      1  C1  TEM d   1       0.992  -0.961  -3.338  0.00  0.00    +0.080 C 
ATOM      2  C2  TEM d   1      -0.175  -0.683  -2.741  0.00  0.00    -0.020 C 
ENDROOT
BRANCH   1   3
ATOM      3  C3  TEM d   1       1.292  -0.521  -4.778  0.00  0.00    +0.198 C 
ATOM      4  O1  TEM d   1       1.745  -1.400  -5.563  0.00  0.00    -0.645 OA
ATOM      5  O2  TEM d   1       1.043   0.700  -5.005  0.00  0.00    -0.645 OA
ENDBRANCH   1   3
BRANCH   2   6
ATOM      6  C5  TEM d   1      -0.507  -1.101  -1.336  0.00  0.00    +0.027 C 
BRANCH   6   7
ATOM      7  C6  TEM d   1      -0.686   0.115  -0.425  0.00  0.00    -0.001 C 
ATOM      8  C4  TEM d   1       0.068  -0.057   0.885  0.00  0.00    +0.005 C 
ENDBRANCH   6   7
ENDBRANCH   2   6
TORSDOF 3
