REMARK  Name = G7_out.pdbqt
REMARK  3 active torsions:
REMARK  status: ('A' for Active; 'I' for Inactive)
REMARK    1  A    between atoms: C7_3  and  C3_4
REMARK    2  A    between atoms: C7_3  and  C6_7
REMARK    3  A    between atoms: C6_7  and  C2_8
REMARK                            x       y       z     vdW  Elec       q    Type
REMARK                         _______ _______ _______ _____ _____    ______ ____
ROOT
ATOM      1  C4  TEM d   1       0.162   1.258  -3.664  0.00  0.00    +0.026 C 
ATOM      2  C5  TEM d   1      -1.709   0.705  -2.104  0.00  0.00    +0.026 C 
ATOM      3  C7  TEM d   1      -0.209   0.515  -2.370  0.00  0.00    +0.044 C 
ENDROOT
BRANCH   3   4
ATOM      4  C3  TEM d   1       0.152  -0.968  -2.684  0.00  0.00    +0.181 C 
ATOM      5  O1  TEM d   1      -0.658  -1.833  -2.237  0.00  0.00    -0.647 OA
ATOM      6  O2  TEM d   1       1.217  -1.150  -3.339  0.00  0.00    -0.647 OA
ENDBRANCH   3   4
BRANCH   3   7
ATOM      7  C6  TEM d   1       0.636   1.077  -1.203  0.00  0.00    +0.046 C 
BRANCH   7   8
ATOM      8  C2  TEM d   1       0.771   0.142  -0.032  0.00  0.00    -0.036 C 
ATOM      9  C1  TEM d   1      -0.165  -0.015   0.910  0.00  0.00    +0.007 C 
ENDBRANCH   7   8
ENDBRANCH   3   7
TORSDOF 3
