REMARK  Name = g19_out.pdbqt
REMARK  1 active torsions:
REMARK  status: ('A' for Active; 'I' for Inactive)
REMARK    1  A    between atoms: C9_5  and  C10_9
REMARK                            x       y       z     vdW  Elec       q    Type
REMARK                         _______ _______ _______ _____ _____    ______ ____
ROOT
ATOM      1  C1  UNL d   1       4.183  26.102  24.774  0.00  0.00    +0.033 C 
ATOM      2  C2  UNL d   1       6.458  25.855  25.825  0.00  0.00    +0.033 C 
ATOM      3  C5  UNL d   1       4.770  25.732  23.417  0.00  0.00    +0.237 C 
ATOM      4  C6  UNL d   1       7.046  25.485  24.469  0.00  0.00    +0.237 C 
ATOM      5  C9  UNL d   1       4.976  25.484  25.928  0.00  0.00    -0.007 C 
ATOM      6  C11 UNL d   1       6.441  27.620  23.260  0.00  0.00    +0.272 C 
ATOM      7  C12 UNL d   1       6.797  25.529  22.000  0.00  0.00    +0.272 C 
ATOM      8  N1  UNL d   1       6.252  26.104  23.315  0.00  0.00    -0.075 N 
ENDROOT
BRANCH   5   9
ATOM      9  C10 UNL d   1       4.400  25.918  27.274  0.00  0.00    -0.007 C 
ATOM     10  C3  UNL d   1       5.165  25.264  28.428  0.00  0.00    +0.033 C 
ATOM     11  C7  UNL d   1       4.647  25.723  29.787  0.00  0.00    +0.237 C 
ATOM     12  N2  UNL d   1       4.668  27.249  29.920  0.00  0.00    -0.075 N 
ATOM     13  C8  UNL d   1       3.902  27.902  28.765  0.00  0.00    +0.237 C 
ATOM     14  C13 UNL d   1       6.098  27.780  30.009  0.00  0.00    +0.272 C 
ATOM     15  C14 UNL d   1       3.962  27.621  31.230  0.00  0.00    +0.272 C 
ATOM     16  C4  UNL d   1       4.419  27.442  27.407  0.00  0.00    +0.033 C 
ENDBRANCH   5   9
TORSDOF 1
