REMARK  Name = TDZ_out.pdbqt
REMARK  4 active torsions:
REMARK  status: ('A' for Active; 'I' for Inactive)
REMARK    1  A    between atoms: C12_12  and  S2_25
REMARK    2  A    between atoms: N1_13  and  C21_15
REMARK    3  A    between atoms: C21_15  and  C20_16
REMARK    4  A    between atoms: C20_16  and  C17_17
REMARK                            x       y       z     vdW  Elec       q    Type
REMARK                         _______ _______ _______ _____ _____    ______ ____
ROOT
ATOM      1  C1  UNL d   1      15.503   2.716   1.215  0.00  0.00    +0.002 C 
ATOM      2  C2  UNL d   1      16.585   1.906   1.532  0.00  0.00    +0.002 C 
ATOM      3  C3  UNL d   1      14.213   2.179   1.189  0.00  0.00    +0.031 C 
ATOM      4  C4  UNL d   1      16.371   0.564   1.827  0.00  0.00    +0.021 C 
ATOM      5  C5  UNL d   1      12.782  -3.020   3.236  0.00  0.00    +0.022 C 
ATOM      6  C6  UNL d   1      11.443  -3.227   3.549  0.00  0.00    +0.020 C 
ATOM      7  C7  UNL d   1      10.898  -1.131   2.491  0.00  0.00    +0.049 C 
ATOM      8  C8  UNL d   1      13.963   0.818   1.473  0.00  0.00    +0.052 C 
ATOM      9  C9  UNL d   1      12.247  -0.894   2.146  0.00  0.00    +0.053 C 
ATOM     10  C10 UNL d   1      15.074   0.020   1.808  0.00  0.00    +0.032 C 
ATOM     11  C11 UNL d   1      13.189  -1.863   2.549  0.00  0.00    +0.032 C 
ATOM     12  C12 UNL d   1      10.501  -2.280   3.179  0.00  0.00    +0.002 C 
ATOM     13  N1  UNL d   1      12.652   0.277   1.459  0.00  0.00    -0.345 N 
ATOM     14  S1  UNL d   1      14.926  -1.716   2.181  0.00  0.00    -0.086 S 
ENDROOT
BRANCH  12  15
ATOM     15  S2  UNL d   1       8.783  -2.528   3.589  0.00  0.00    -0.134 S 
ATOM     16  C19 UNL d   1       8.272  -0.806   3.794  0.00  0.00    +0.095 C 
ENDBRANCH  12  15
BRANCH  13  17
ATOM     17  C21 UNL d   1      11.620   1.028   0.734  0.00  0.00    +0.131 C 
BRANCH  17  18
ATOM     18  C20 UNL d   1      11.814   0.972  -0.778  0.00  0.00    +0.053 C 
BRANCH  18  19
ATOM     19  C17 UNL d   1      11.596  -0.427  -1.350  0.00  0.00    +0.189 C 
ATOM     20  C15 UNL d   1      12.938  -1.017  -1.802  0.00  0.00    +0.033 C 
ATOM     21  C13 UNL d   1      12.777  -2.383  -2.459  0.00  0.00    +0.004 C 
ATOM     22  C14 UNL d   1      11.793  -2.313  -3.616  0.00  0.00    +0.028 C 
ATOM     23  C16 UNL d   1      10.454  -1.746  -3.172  0.00  0.00    +0.235 C 
ATOM     24  N2  UNL d   1      10.652  -0.378  -2.549  0.00  0.00    -0.071 N 
ATOM     25  C18 UNL d   1       9.310   0.242  -2.240  0.00  0.00    +0.270 C 
ATOM     26  H27 UNL d   1      11.092   0.218  -3.264  0.00  0.00    +0.279 HD
ENDBRANCH  18  19
ENDBRANCH  17  18
ENDBRANCH  13  17
TORSDOF 4
