REMARK  Name = G3_out.pdbqt
REMARK  5 active torsions:
REMARK  status: ('A' for Active; 'I' for Inactive)
REMARK    1  A    between atoms: C5_1  and  C4_2
REMARK    2  A    between atoms: C5_1  and  C6_6
REMARK    3  A    between atoms: C4_2  and  C3_3
REMARK    4  A    between atoms: C3_3  and  C2_4
REMARK    5  A    between atoms: C6_6  and  N1_7
REMARK                            x       y       z     vdW  Elec       q    Type
REMARK                         _______ _______ _______ _____ _____    ______ ____
ROOT
ATOM      1  C5  MOL d   1       2.226  -0.154  -2.950  0.00  0.00    +0.028 C 
ENDROOT
BRANCH   1   2
ATOM      2  C4  MOL d   1       1.683  -0.431  -1.539  0.00  0.00    +0.002 C 
BRANCH   2   3
ATOM      3  C3  MOL d   1       0.209  -0.851  -1.607  0.00  0.00    -0.000 C 
BRANCH   3   4
ATOM      4  C2  MOL d   1      -0.651   0.052  -0.713  0.00  0.00    -0.005 C 
ATOM      5  C1  MOL d   1      -0.145   0.017   0.732  0.00  0.00    +0.005 C 
ENDBRANCH   3   4
ENDBRANCH   2   3
ENDBRANCH   1   2
BRANCH   1   6
ATOM      6  C6  MOL d   1       1.971   1.346  -3.215  0.00  0.00    +0.236 C 
BRANCH   6   7
ATOM      7  N1  MOL d   1       1.145   1.534  -4.455  0.00  0.00    -0.079 N 
ATOM      8  C7  MOL d   1       1.642   2.674  -5.272  0.00  0.00    +0.271 C 
ATOM      9  C8  MOL d   1      -0.244   1.839  -4.030  0.00  0.00    +0.271 C 
ATOM     10  C9  MOL d   1       1.118   0.297  -5.283  0.00  0.00    +0.271 C 
ENDBRANCH   6   7
ENDBRANCH   1   6
TORSDOF 5
