REMARK  Name = G7_out.pdbqt
REMARK  5 active torsions:
REMARK  status: ('A' for Active; 'I' for Inactive)
REMARK    1  A    between atoms: C12_4  and  C8_20
REMARK    2  A    between atoms: C15_7  and  O3_11
REMARK    3  A    between atoms: O3_11  and  C7_12
REMARK    4  A    between atoms: C7_12  and  C6_14
REMARK    5  A    between atoms: C8_20  and  O4_22
REMARK                            x       y       z     vdW  Elec       q    Type
REMARK                         _______ _______ _______ _____ _____    ______ ____
ROOT
ATOM      1  C9  UNL d   1      10.580  39.657  32.856  0.00  0.00    +0.035 C 
ATOM      2  C10 UNL d   1      10.630  40.712  31.742  0.00  0.00    +0.036 C 
ATOM      3  C11 UNL d   1      10.368  37.490  31.515  0.00  0.00    +0.066 C 
ATOM      4  C12 UNL d   1      10.396  39.261  29.655  0.00  0.00    +0.146 C 
ATOM      5  C13 UNL d   1      11.301  38.428  32.296  0.00  0.00    +0.191 C 
ATOM      6  C14 UNL d   1      11.360  40.044  30.572  0.00  0.00    +0.204 C 
ATOM      7  C15 UNL d   1       9.562  38.222  30.431  0.00  0.00    +0.149 C 
ATOM      8  C16 UNL d   1      13.515  39.590  31.848  0.00  0.00    +0.270 C 
ATOM      9  N1  UNL d   1      12.247  39.028  31.276  0.00  0.00    -0.065 N 
ATOM     10  H22 UNL d   1      12.542  38.298  30.615  0.00  0.00    +0.280 HD
ENDROOT
BRANCH   4  11
ATOM     11  C8  UNL d   1      11.163  38.641  28.519  0.00  0.00    +0.267 C 
ATOM     12  O2  UNL d   1      11.805  37.603  28.611  0.00  0.00    -0.265 OA
BRANCH  11  13
ATOM     13  O4  UNL d   1      11.028  39.412  27.403  0.00  0.00    -0.326 OA
ATOM     14  C17 UNL d   1       9.910  40.307  27.405  0.00  0.00    +0.213 C 
ENDBRANCH  11  13
ENDBRANCH   4  11
BRANCH   7  15
ATOM     15  O3  UNL d   1       8.955  37.291  29.543  0.00  0.00    -0.311 OA
BRANCH  15  16
ATOM     16  C7  UNL d   1       7.859  37.737  28.869  0.00  0.00    +0.293 C 
ATOM     17  O1  UNL d   1       6.940  38.388  29.342  0.00  0.00    -0.259 OA
BRANCH  16  18
ATOM     18  C6  UNL d   1       7.915  37.322  27.444  0.00  0.00    +0.039 C 
ATOM     19  C4  UNL d   1       8.672  36.211  27.072  0.00  0.00    +0.017 C 
ATOM     20  C2  UNL d   1       8.725  35.820  25.734  0.00  0.00    +0.001 C 
ATOM     21  C1  UNL d   1       8.022  36.541  24.768  0.00  0.00    +0.000 C 
ATOM     22  C3  UNL d   1       7.265  37.652  25.141  0.00  0.00    +0.001 C 
ATOM     23  C5  UNL d   1       7.211  38.042  26.479  0.00  0.00    +0.017 C 
ENDBRANCH  16  18
ENDBRANCH  15  16
ENDBRANCH   7  15
TORSDOF 5
