REMARK  Name = G6_out.pdbqt
REMARK  1 active torsions:
REMARK  status: ('A' for Active; 'I' for Inactive)
REMARK    1  A    between atoms: C7_7  and  N1_8
REMARK                            x       y       z     vdW  Elec       q    Type
REMARK                         _______ _______ _______ _____ _____    ______ ____
ROOT
ATOM      1  C1  CB8 d   1       8.164  36.974  31.065  0.00  0.00    +0.000 C 
ATOM      2  C2  CB8 d   1       7.621  36.932  29.637  0.00  0.00    +0.000 C 
ATOM      3  C3  CB8 d   1       9.575  37.546  31.207  0.00  0.00    +0.002 C 
ATOM      4  C4  CB8 d   1       7.329  38.287  28.973  0.00  0.00    +0.002 C 
ATOM      5  C5  CB8 d   1       9.947  38.680  30.255  0.00  0.00    +0.033 C 
ATOM      6  C6  CB8 d   1       7.508  39.517  29.861  0.00  0.00    +0.033 C 
ATOM      7  C7  CB8 d   1       8.969  39.853  30.178  0.00  0.00    +0.183 C 
ENDROOT
BRANCH   7   8
ATOM      8  N1  CB8 d   1       9.005  40.608  31.465  0.00  0.00    -0.075 N 
ATOM      9  H14 CB8 d   1       8.979  39.962  32.255  0.00  0.00    +0.274 HD
ATOM     10  H15 CB8 d   1       8.202  41.236  31.529  0.00  0.00    +0.274 HD
ATOM     11  H16 CB8 d   1       9.859  41.164  31.526  0.00  0.00    +0.274 HD
ENDBRANCH   7   8
TORSDOF 1
