REMARK  Name = 11a_out.pdbqt
REMARK  1 active torsions:
REMARK  status: ('A' for Active; 'I' for Inactive)
REMARK    1  A    between atoms: C7_7  and  N1_8
REMARK                            x       y       z     vdW  Elec       q    Type
REMARK                         _______ _______ _______ _____ _____    ______ ____
ROOT
ATOM      1  C1  <0> d   1      -1.463   0.432  -0.582  0.00  0.00    +0.005 C 
ATOM      2  C2  <0> d   1      -1.378  -0.935   0.116  0.00  0.00    +0.007 C 
ATOM      3  C3  <0> d   1      -1.288   0.769   1.766  0.00  0.00    +0.011 C 
ATOM      4  C4  <0> d   1       0.693   1.137   0.488  0.00  0.00    +0.037 C 
ATOM      5  C5  <0> d   1      -0.828   1.385   0.446  0.00  0.00    -0.012 C 
ATOM      6  C6  <0> d   1      -0.678  -0.599   1.446  0.00  0.00    +0.016 C 
ATOM      7  C7  <0> d   1       0.789  -0.254   1.135  0.00  0.00    +0.188 C 
ENDROOT
BRANCH   7   8
ATOM      8  N1  <0> d   1       1.576  -0.175   2.391  0.00  0.00    -0.075 N 
ATOM      9  H12 <0> d   1       1.864   0.790   2.584  0.00  0.00    +0.274 HD
ATOM     10  H13 <0> d   1       2.423  -0.751   2.328  0.00  0.00    +0.274 HD
ATOM     11  H14 <0> d   1       1.027  -0.509   3.190  0.00  0.00    +0.274 HD
ENDBRANCH   7   8
TORSDOF 1
