REMARK  Name = G6_out.pdbqt
REMARK  1 active torsions:
REMARK  status: ('A' for Active; 'I' for Inactive)
REMARK    1  A    between atoms: C8_8  and  N1_9
REMARK                            x       y       z     vdW  Elec       q    Type
REMARK                         _______ _______ _______ _____ _____    ______ ____
ROOT
ATOM      1  C1  UNL d   1      -1.054   0.936   1.167  0.00  0.00    +0.000 C 
ATOM      2  C2  UNL d   1      -1.470  -0.453   0.677  0.00  0.00    +0.000 C 
ATOM      3  C3  UNL d   1       0.359   1.009   1.749  0.00  0.00    +0.000 C 
ATOM      4  C4  UNL d   1      -1.439  -0.640  -0.838  0.00  0.00    +0.002 C 
ATOM      5  C5  UNL d   1       1.519   0.839   0.765  0.00  0.00    +0.002 C 
ATOM      6  C6  UNL d   1      -0.211  -0.127  -1.588  0.00  0.00    +0.033 C 
ATOM      7  C7  UNL d   1       1.662  -0.573   0.194  0.00  0.00    +0.033 C 
ATOM      8  C8  UNL d   1       1.147  -0.738  -1.238  0.00  0.00    +0.183 C 
ENDROOT
BRANCH   8   9
ATOM      9  N1  UNL d   1       1.125  -2.197  -1.553  0.00  0.00    -0.075 N 
ATOM     10  H16 UNL d   1       0.164  -2.539  -1.601  0.00  0.00    +0.274 HD
ATOM     11  H17 UNL d   1       1.622  -2.726  -0.833  0.00  0.00    +0.274 HD
ATOM     12  H18 UNL d   1       1.577  -2.375  -2.453  0.00  0.00    +0.274 HD
ENDBRANCH   8   9
TORSDOF 1
