REMARK  Name = G9_out.pdbqt
REMARK  2 active torsions:
REMARK  status: ('A' for Active; 'I' for Inactive)
REMARK    1  A    between atoms: C9_9  and  N1_11
REMARK    2  A    between atoms: C10_10  and  O1_15
REMARK                            x       y       z     vdW  Elec       q    Type
REMARK                         _______ _______ _______ _____ _____    ______ ____
ROOT
ATOM      1  C1  UNL d   1       1.694  -0.312   0.553  0.00  0.00    +0.009 C 
ATOM      2  C2  UNL d   1      -0.079   1.315   1.272  0.00  0.00    +0.043 C 
ATOM      3  C3  UNL d   1       0.702   1.274  -1.121  0.00  0.00    +0.043 C 
ATOM      4  C4  UNL d   1      -0.600  -1.135   1.142  0.00  0.00    +0.042 C 
ATOM      5  C5  UNL d   1       0.176  -1.176  -1.245  0.00  0.00    +0.042 C 
ATOM      6  C6  UNL d   1      -1.600   0.450  -0.534  0.00  0.00    +0.076 C 
ATOM      7  C7  UNL d   1       0.487  -0.102   1.486  0.00  0.00    -0.009 C 
ATOM      8  C8  UNL d   1       1.268  -0.144  -0.917  0.00  0.00    -0.009 C 
ATOM      9  C9  UNL d   1      -0.510   1.479  -0.196  0.00  0.00    +0.127 C 
ATOM     10  C10 UNL d   1      -1.041  -0.970  -0.325  0.00  0.00    +0.061 C 
ENDROOT
BRANCH   9  11
ATOM     11  N1  UNL d   1      -1.051   2.846  -0.396  0.00  0.00    -0.070 N 
ATOM     12  H15 UNL d   1      -2.042   2.814  -0.657  0.00  0.00    +0.275 HD
ATOM     13  H16 UNL d   1      -0.544   3.334  -1.142  0.00  0.00    +0.275 HD
ATOM     14  H17 UNL d   1      -0.967   3.402   0.460  0.00  0.00    +0.275 HD
ENDBRANCH   9  11
BRANCH  10  15
ATOM     15  O1  UNL d   1      -2.041  -1.935  -0.619  0.00  0.00    -0.390 OA
ATOM     16  H18 UNL d   1      -1.590  -2.689  -1.034  0.00  0.00    +0.210 HD
ENDBRANCH  10  15
TORSDOF 2
