/inspire/ssd/ws-f4d69b29-e0a5-44e6-bd92-acf4de9990f0/public-project/hurenling-241310070200/LamNet/model/LamNet/data/rbfe/syk-nnp/CHEMBL3265022/CHEMBL3265022.pdb
 OpenBabel01062511123D

 30 34  0  0  0  0  0  0  0  0999 V2000
   44.3300   28.8400   47.0750 C   0  0  0  0  0  0  0  0  0  0  0  0
   44.7140   29.5850   48.2210 O   0  0  0  0  0  0  0  0  0  0  0  0
   46.0620   29.8320   48.3240 C   0  0  0  0  0  0  0  0  0  0  0  0
   46.8390   29.0700   49.1860 C   0  0  0  0  0  0  0  0  0  0  0  0
   48.1950   29.3230   49.3170 C   0  0  0  0  0  0  0  0  0  0  0  0
   48.8100   30.3510   48.5950 C   0  0  0  0  0  0  0  0  0  0  0  0
   50.1950   30.5680   48.8260 N   0  0  0  0  0  0  0  0  0  0  0  0
   51.1250   31.4910   48.2730 C   0  0  0  0  0  0  0  0  0  0  0  0
   50.7670   32.3180   47.2430 N   0  0  0  0  0  0  0  0  0  0  0  0
   51.7040   33.1750   46.7290 C   0  0  0  0  0  0  0  0  0  0  0  0
   53.0100   33.2150   47.2100 C   0  0  0  0  0  0  0  0  0  0  0  0
   53.3370   32.4230   48.2710 N   0  0  0  0  0  0  0  0  0  0  0  0
   54.4890   32.3120   48.9980 C   0  0  0  0  0  0  0  0  0  0  0  0
   54.1780   31.4060   50.0410 C   0  0  0  0  0  0  0  0  0  0  0  0
   52.9650   30.8920   49.8840 N   0  0  0  0  0  0  0  0  0  0  0  0
   52.4250   31.5440   48.8380 C   0  0  0  0  0  0  0  0  0  0  0  0
   51.2300   34.0970   45.6320 C   0  0  0  0  0  0  0  0  0  0  0  0
   52.1420   34.5810   44.6770 C   0  0  0  0  0  0  0  0  0  0  0  0
   51.7450   35.4000   43.6220 C   0  0  0  0  0  0  0  0  0  0  0  0
   50.4010   35.7550   43.5260 C   0  0  0  0  0  0  0  0  0  0  0  0
   49.5960   36.5360   42.6240 C   0  0  0  0  0  0  0  0  0  0  0  0
   48.3540   36.5510   43.0130 N   0  0  0  0  0  0  0  0  0  0  0  0
   48.2620   35.8410   44.1260 N   0  0  0  0  0  0  0  0  0  0  0  0
   46.9700   35.7250   44.7760 C   0  0  0  0  0  0  0  0  0  0  0  0
   49.4800   35.2970   44.5020 C   0  0  0  0  0  0  0  0  0  0  0  0
   49.8650   34.4720   45.5700 C   0  0  0  0  0  0  0  0  0  0  0  0
   48.0340   31.1270   47.7080 C   0  0  0  0  0  0  0  0  0  0  0  0
   46.6450   30.8570   47.5740 C   0  0  0  0  0  0  0  0  0  0  0  0
   45.8400   31.5900   46.7210 O   0  0  0  0  0  0  0  0  0  0  0  0
   46.3710   32.5500   45.8400 C   0  0  0  0  0  0  0  0  0  0  0  0
  1  2  1  0  0  0  0
  2  3  1  0  0  0  0
  3  4  2  0  0  0  0
  3 28  1  0  0  0  0
  4  5  1  0  0  0  0
  5  6  2  0  0  0  0
  6  7  1  0  0  0  0
  6 27  1  0  0  0  0
  7  8  1  0  0  0  0
  8  9  2  0  0  0  0
  8 16  1  0  0  0  0
  9 10  1  0  0  0  0
 10 11  2  0  0  0  0
 10 17  1  0  0  0  0
 11 12  1  0  0  0  0
 12 13  1  0  0  0  0
 12 16  1  0  0  0  0
 13 14  2  0  0  0  0
 14 15  1  0  0  0  0
 15 16  2  0  0  0  0
 17 18  2  0  0  0  0
 17 26  1  0  0  0  0
 18 19  1  0  0  0  0
 19 20  2  0  0  0  0
 20 21  1  0  0  0  0
 20 25  1  0  0  0  0
 21 22  2  0  0  0  0
 22 23  1  0  0  0  0
 23 24  1  0  0  0  0
 23 25  1  0  0  0  0
 25 26  2  0  0  0  0
 27 28  2  0  0  0  0
 28 29  1  0  0  0  0
 29 30  1  0  0  0  0
M  END
>  <COMPND>
    /Users/00mac/Documents/LamNet/model/LamNet/data/rbfe/syk-nnp/CHEMBL3265022/CHEMBL3265022.pdb 

>  <AUTHOR>
    GENERATED BY OPEN BABEL 3.1.0

>  <MASTER>
        0    0    0    0    0    0    0    0   30    0   30    0

$$$$
