REMARK  Name = 2_out.pdbqt
REMARK  2 active torsions:
REMARK  status: ('A' for Active; 'I' for Inactive)
REMARK    1  A    between atoms: C4_1  and  C5_2
REMARK    2  A    between atoms: C4_1  and  N1_6
REMARK                            x       y       z     vdW  Elec       q    Type
REMARK                         _______ _______ _______ _____ _____    ______ ____
ROOT
ATOM      1  C4  <0> d   1      -0.999   0.645   2.406  0.00  0.00    +0.237 C 
ENDROOT
BRANCH   1   2
ATOM      2  C5  <0> d   1      -0.573   0.393   0.943  0.00  0.00    -0.028 C 
ATOM      3  C1  <0> d   1      -0.725   1.662   0.088  0.00  0.00    +0.016 C 
ATOM      4  C2  <0> d   1       0.912  -0.018   0.949  0.00  0.00    +0.016 C 
ATOM      5  C3  <0> d   1      -1.393  -0.744   0.310  0.00  0.00    +0.016 C 
ENDBRANCH   1   2
BRANCH   1   6
ATOM      6  N1  <0> d   1      -1.282  -0.611   3.140  0.00  0.00    -0.079 N 
ATOM      7  H12 <0> d   1      -0.564  -1.318   2.949  0.00  0.00    +0.274 HD
ATOM      8  H13 <0> d   1      -2.190  -1.001   2.865  0.00  0.00    +0.274 HD
ATOM      9  H14 <0> d   1      -1.302  -0.448   4.153  0.00  0.00    +0.274 HD
ENDBRANCH   1   6
TORSDOF 2
