REMARK  Name = g3_out.pdbqt
REMARK  2 active torsions:
REMARK  status: ('A' for Active; 'I' for Inactive)
REMARK    1  A    between atoms: C2_2  and  C4_7
REMARK    2  A    between atoms: C9_6  and  C5_10
REMARK                            x       y       z     vdW  Elec       q    Type
REMARK                         _______ _______ _______ _____ _____    ______ ____
ROOT
ATOM      1  C1  UNL d   1      -0.104  -4.151  -1.983  0.00  0.00    -0.012 C 
ATOM      2  C2  UNL d   1       1.038  -4.760  -1.634  0.00  0.00    +0.015 C 
ATOM      3  C6  UNL d   1      -0.539  -2.843  -1.383  0.00  0.00    +0.036 C 
ATOM      4  C7  UNL d   1       1.984  -4.233  -0.598  0.00  0.00    +0.046 C 
ATOM      5  C8  UNL d   1       1.359  -3.131   0.265  0.00  0.00    +0.014 C 
ATOM      6  C9  UNL d   1       0.575  -2.130  -0.596  0.00  0.00    +0.017 C 
ENDROOT
BRANCH   2   7
ATOM      7  C4  UNL d   1       1.363  -6.028  -2.293  0.00  0.00    +0.204 C 
ATOM      8  O1  UNL d   1       0.922  -6.147  -3.471  0.00  0.00    -0.644 OA
ATOM      9  O2  UNL d   1       2.042  -6.834  -1.598  0.00  0.00    -0.644 OA
ENDBRANCH   2   7
BRANCH   6  10
ATOM     10  C5  UNL d   1       0.006  -1.025   0.238  0.00  0.00    -0.089 C 
ATOM     11  C3  UNL d   1       0.190   0.266  -0.076  0.00  0.00    +0.014 C 
ATOM     12  C10 UNL d   1      -0.782  -1.445   1.443  0.00  0.00    +0.043 C 
ENDBRANCH   6  10
TORSDOF 2
