REMARK  Name = G4_out.pdbqt
REMARK  1 active torsions:
REMARK  status: ('A' for Active; 'I' for Inactive)
REMARK    1  A    between atoms: C6_6  and  C11_12
REMARK                            x       y       z     vdW  Elec       q    Type
REMARK                         _______ _______ _______ _____ _____    ______ ____
ROOT
ATOM      1  C1  MOL d   1       0.647  -0.888  -6.800  0.00  0.00    +0.010 C 
ATOM      2  C2  MOL d   1       1.666  -0.595  -5.678  0.00  0.00    -0.013 C 
ATOM      3  C3  MOL d   1      -0.601   0.017  -6.623  0.00  0.00    +0.002 C 
ATOM      4  C4  MOL d   1      -1.233  -0.252  -5.241  0.00  0.00    +0.026 C 
ATOM      5  C5  MOL d   1       1.015  -0.869  -4.305  0.00  0.00    +0.025 C 
ATOM      6  C6  MOL d   1      -0.225   0.023  -4.104  0.00  0.00    +0.049 C 
ATOM      7  C7  MOL d   1       0.199   1.505  -4.211  0.00  0.00    +0.026 C 
ATOM      8  C8  MOL d   1       2.092   0.885  -5.761  0.00  0.00    +0.010 C 
ATOM      9  C9  MOL d   1      -0.102   1.461  -6.730  0.00  0.00    +0.066 C 
ATOM     10  C10 MOL d   1       0.851   1.799  -5.578  0.00  0.00    +0.002 C 
ATOM     11 Br1  MOL d   1      -1.648   2.762  -6.800  0.00  0.00    -0.090 Br
ENDROOT
BRANCH   6  12
ATOM     12  C11 MOL d   1      -0.932  -0.225  -2.705  0.00  0.00    +0.181 C 
ATOM     13  O1  MOL d   1      -0.740  -1.373  -2.232  0.00  0.00    -0.647 OA
ATOM     14  O2  MOL d   1      -1.587   0.739  -2.242  0.00  0.00    -0.647 OA
ENDBRANCH   6  12
TORSDOF 1
