/inspire/ssd/ws-f4d69b29-e0a5-44e6-bd92-acf4de9990f0/public-project/hurenling-241310070200/LamNet/model/LamNet/data/rbfe/syk-nnp/CHEMBL3265004/CHEMBL3265004.pdb
 OpenBabel01062511123D

 40 45  0  0  0  0  0  0  0  0999 V2000
   44.3290   28.8270   47.0580 C   0  0  0  0  0  0  0  0  0  0  0  0
   44.7060   29.5800   48.2030 O   0  0  0  0  0  0  0  0  0  0  0  0
   46.0530   29.8280   48.2950 C   0  0  0  0  0  0  0  0  0  0  0  0
   46.8260   29.0700   49.1750 C   0  0  0  0  0  0  0  0  0  0  0  0
   48.1900   29.3270   49.3140 C   0  0  0  0  0  0  0  0  0  0  0  0
   48.8000   30.3530   48.5870 C   0  0  0  0  0  0  0  0  0  0  0  0
   50.1700   30.5890   48.8090 N   0  0  0  0  0  0  0  0  0  0  0  0
   51.1230   31.4680   48.2580 C   0  0  0  0  0  0  0  0  0  0  0  0
   50.8000   32.2890   47.2200 N   0  0  0  0  0  0  0  0  0  0  0  0
   51.7060   33.1740   46.7200 C   0  0  0  0  0  0  0  0  0  0  0  0
   53.0020   33.2390   47.2230 C   0  0  0  0  0  0  0  0  0  0  0  0
   53.3260   32.4300   48.2740 N   0  0  0  0  0  0  0  0  0  0  0  0
   54.4650   32.3240   49.0160 C   0  0  0  0  0  0  0  0  0  0  0  0
   54.1430   31.4340   50.0320 C   0  0  0  0  0  0  0  0  0  0  0  0
   52.9550   30.8880   49.9040 N   0  0  0  0  0  0  0  0  0  0  0  0
   52.4090   31.5220   48.8330 C   0  0  0  0  0  0  0  0  0  0  0  0
   51.2420   34.0870   45.6320 C   0  0  0  0  0  0  0  0  0  0  0  0
   52.1460   34.5570   44.6670 C   0  0  0  0  0  0  0  0  0  0  0  0
   51.7210   35.3760   43.6250 C   0  0  0  0  0  0  0  0  0  0  0  0
   50.3810   35.7330   43.5230 C   0  0  0  0  0  0  0  0  0  0  0  0
   49.4560   35.2980   44.4790 C   0  0  0  0  0  0  0  0  0  0  0  0
   49.9000   34.4880   45.5340 C   0  0  0  0  0  0  0  0  0  0  0  0
   48.0120   35.6910   44.3790 C   0  0  0  0  0  0  0  0  0  0  0  0
   47.3150   35.5820   43.3730 O   0  0  0  0  0  0  0  0  0  0  0  0
   47.5510   36.1830   45.5290 N   0  0  0  0  0  0  0  0  0  0  0  0
   46.1900   36.6560   45.7640 C   0  0  0  0  0  0  0  0  0  0  0  0
   45.9260   37.5130   46.8260 C   0  0  0  0  0  0  0  0  0  0  0  0
   44.6300   37.9630   47.0510 C   0  0  0  0  0  0  0  0  0  0  0  0
   43.5980   37.5570   46.2120 C   0  0  0  0  0  0  0  0  0  0  0  0
   43.8630   36.7020   45.1490 C   0  0  0  0  0  0  0  0  0  0  0  0
   45.1580   36.2510   44.9260 C   0  0  0  0  0  0  0  0  0  0  0  0
   42.2000   38.0430   46.4540 C   0  0  0  0  0  0  0  0  0  0  0  0
   41.0570   37.7340   45.7110 C   0  0  0  0  0  0  0  0  0  0  0  0
   39.9840   38.3250   46.1870 N   0  0  0  0  0  0  0  0  0  0  0  0
   40.4190   39.0270   47.2480 N   0  0  0  0  0  0  0  0  0  0  0  0
   41.7660   38.8910   47.4570 C   0  0  0  0  0  0  0  0  0  0  0  0
   48.0140   31.1080   47.7060 C   0  0  0  0  0  0  0  0  0  0  0  0
   46.6420   30.8570   47.5480 C   0  0  0  0  0  0  0  0  0  0  0  0
   45.8850   31.6250   46.6870 O   0  0  0  0  0  0  0  0  0  0  0  0
   46.5840   32.6040   46.0100 C   0  0  0  0  0  0  0  0  0  0  0  0
  1  2  1  0  0  0  0
  2  3  1  0  0  0  0
  3  4  2  0  0  0  0
  3 38  1  0  0  0  0
  4  5  1  0  0  0  0
  5  6  2  0  0  0  0
  6  7  1  0  0  0  0
  6 37  1  0  0  0  0
  7  8  1  0  0  0  0
  8  9  2  0  0  0  0
  8 16  1  0  0  0  0
  9 10  1  0  0  0  0
 10 11  2  0  0  0  0
 10 17  1  0  0  0  0
 11 12  1  0  0  0  0
 12 13  1  0  0  0  0
 12 16  1  0  0  0  0
 13 14  2  0  0  0  0
 14 15  1  0  0  0  0
 15 16  2  0  0  0  0
 17 18  2  0  0  0  0
 17 22  1  0  0  0  0
 18 19  1  0  0  0  0
 19 20  2  0  0  0  0
 20 21  1  0  0  0  0
 21 22  2  0  0  0  0
 21 23  1  0  0  0  0
 23 24  2  0  0  0  0
 23 25  1  0  0  0  0
 25 26  1  0  0  0  0
 26 27  2  0  0  0  0
 26 31  1  0  0  0  0
 27 28  1  0  0  0  0
 28 29  2  0  0  0  0
 29 30  1  0  0  0  0
 29 32  1  0  0  0  0
 30 31  2  0  0  0  0
 32 33  2  0  0  0  0
 32 36  1  0  0  0  0
 33 34  1  0  0  0  0
 34 35  2  0  0  0  0
 35 36  1  0  0  0  0
 37 38  2  0  0  0  0
 38 39  1  0  0  0  0
 39 40  1  0  0  0  0
M  END
>  <COMPND>
    /Users/00mac/Documents/LamNet/model/LamNet/data/rbfe/syk-nnp/CHEMBL3265004/CHEMBL3265004.pdb 

>  <AUTHOR>
    GENERATED BY OPEN BABEL 3.1.0

>  <MASTER>
        0    0    0    0    0    0    0    0   40    0   40    0

$$$$
