/inspire/ssd/ws-f4d69b29-e0a5-44e6-bd92-acf4de9990f0/public-project/hurenling-241310070200/LamNet/model/LamNet/data/rbfe/syk-nnp/CHEMBL3265036/CHEMBL3265036.pdb
 OpenBabel01062511123D

 32 37  0  0  0  0  0  0  0  0999 V2000
   43.7880   29.1820   45.8170 C   0  0  0  0  0  0  0  0  0  0  0  0
   43.1660   27.8310   46.1170 C   0  0  0  0  0  0  0  0  0  0  0  0
   44.0860   26.9930   46.8180 O   0  0  0  0  0  0  0  0  0  0  0  0
   44.1620   27.1040   48.2500 C   0  0  0  0  0  0  0  0  0  0  0  0
   44.0580   28.4920   48.9230 C   0  0  0  0  0  0  0  0  0  0  0  0
   44.6540   29.6390   48.2480 N   0  0  0  0  0  0  0  0  0  0  0  0
   43.9800   30.0300   47.0390 C   0  0  0  0  0  0  0  0  0  0  0  0
   46.0630   29.8510   48.3360 C   0  0  0  0  0  0  0  0  0  0  0  0
   46.8470   29.0820   49.2130 C   0  0  0  0  0  0  0  0  0  0  0  0
   48.2020   29.3200   49.3410 C   0  0  0  0  0  0  0  0  0  0  0  0
   48.8100   30.3350   48.6110 C   0  0  0  0  0  0  0  0  0  0  0  0
   50.1920   30.5550   48.8550 N   0  0  0  0  0  0  0  0  0  0  0  0
   51.1000   31.4960   48.2840 C   0  0  0  0  0  0  0  0  0  0  0  0
   50.7220   32.3270   47.2750 N   0  0  0  0  0  0  0  0  0  0  0  0
   51.6560   33.1790   46.7460 C   0  0  0  0  0  0  0  0  0  0  0  0
   52.9600   33.2220   47.2130 C   0  0  0  0  0  0  0  0  0  0  0  0
   53.2880   32.4360   48.2720 N   0  0  0  0  0  0  0  0  0  0  0  0
   54.4520   32.3240   48.9810 C   0  0  0  0  0  0  0  0  0  0  0  0
   54.1580   31.3880   50.0000 C   0  0  0  0  0  0  0  0  0  0  0  0
   52.9590   30.8610   49.8450 N   0  0  0  0  0  0  0  0  0  0  0  0
   52.4020   31.5410   48.8360 C   0  0  0  0  0  0  0  0  0  0  0  0
   51.1850   34.0770   45.6250 C   0  0  0  0  0  0  0  0  0  0  0  0
   52.1200   34.5690   44.6910 C   0  0  0  0  0  0  0  0  0  0  0  0
   51.7350   35.3980   43.6330 C   0  0  0  0  0  0  0  0  0  0  0  0
   50.3920   35.7540   43.5240 C   0  0  0  0  0  0  0  0  0  0  0  0
   49.5960   36.5560   42.6330 C   0  0  0  0  0  0  0  0  0  0  0  0
   48.3520   36.5670   43.0140 N   0  0  0  0  0  0  0  0  0  0  0  0
   48.2440   35.8180   44.1120 N   0  0  0  0  0  0  0  0  0  0  0  0
   49.4630   35.2790   44.4750 C   0  0  0  0  0  0  0  0  0  0  0  0
   49.8230   34.4320   45.5370 C   0  0  0  0  0  0  0  0  0  0  0  0
   48.0630   31.1020   47.7140 C   0  0  0  0  0  0  0  0  0  0  0  0
   46.7100   30.8550   47.5820 C   0  0  0  0  0  0  0  0  0  0  0  0
  1  2  1  0  0  0  0
  1  7  1  0  0  0  0
  2  3  1  0  0  0  0
  3  4  1  0  0  0  0
  4  5  1  0  0  0  0
  5  6  1  0  0  0  0
  6  7  1  0  0  0  0
  6  8  1  0  0  0  0
  8  9  2  0  0  0  0
  8 32  1  0  0  0  0
  9 10  1  0  0  0  0
 10 11  2  0  0  0  0
 11 12  1  0  0  0  0
 11 31  1  0  0  0  0
 12 13  1  0  0  0  0
 13 14  2  0  0  0  0
 13 21  1  0  0  0  0
 14 15  1  0  0  0  0
 15 16  2  0  0  0  0
 15 22  1  0  0  0  0
 16 17  1  0  0  0  0
 17 18  1  0  0  0  0
 17 21  1  0  0  0  0
 18 19  2  0  0  0  0
 19 20  1  0  0  0  0
 20 21  2  0  0  0  0
 22 23  2  0  0  0  0
 22 30  1  0  0  0  0
 23 24  1  0  0  0  0
 24 25  2  0  0  0  0
 25 26  1  0  0  0  0
 25 29  1  0  0  0  0
 26 27  2  0  0  0  0
 27 28  1  0  0  0  0
 28 29  2  0  0  0  0
 29 30  1  0  0  0  0
 31 32  2  0  0  0  0
M  END
>  <COMPND>
    /Users/00mac/Documents/LamNet/model/LamNet/data/rbfe/syk-nnp/CHEMBL3265036/CHEMBL3265036.pdb 

>  <AUTHOR>
    GENERATED BY OPEN BABEL 3.1.0

>  <MASTER>
        0    0    0    0    0    0    0    0   32    0   32    0

$$$$
