REMARK  Name = G8_out.pdbqt
REMARK  1 active torsions:
REMARK  status: ('A' for Active; 'I' for Inactive)
REMARK    1  A    between atoms: C12_12  and  N1_13
REMARK                            x       y       z     vdW  Elec       q    Type
REMARK                         _______ _______ _______ _____ _____    ______ ____
ROOT
ATOM      1  C1  CB8 d   1      11.523  38.643  29.988  0.00  0.00    +0.000 C 
ATOM      2  C2  CB8 d   1      11.162  38.203  31.409  0.00  0.00    +0.000 C 
ATOM      3  C3  CB8 d   1      10.481  39.563  29.349  0.00  0.00    +0.000 C 
ATOM      4  C4  CB8 d   1       9.817  37.481  31.613  0.00  0.00    +0.000 C 
ATOM      5  C5  CB8 d   1      10.654  39.657  27.830  0.00  0.00    +0.000 C 
ATOM      6  C6  CB8 d   1       9.626  36.157  30.859  0.00  0.00    +0.000 C 
ATOM      7  C7  CB8 d   1       9.412  40.184  27.093  0.00  0.00    +0.000 C 
ATOM      8  C8  CB8 d   1       9.146  36.246  29.404  0.00  0.00    +0.002 C 
ATOM      9  C9  CB8 d   1       8.107  39.405  27.336  0.00  0.00    +0.002 C 
ATOM     10  C10 CB8 d   1       7.733  36.821  29.235  0.00  0.00    +0.033 C 
ATOM     11  C11 CB8 d   1       8.159  37.929  26.910  0.00  0.00    +0.033 C 
ATOM     12  C12 CB8 d   1       7.313  36.962  27.760  0.00  0.00    +0.183 C 
ENDROOT
BRANCH  12  13
ATOM     13  N1  CB8 d   1       5.888  37.405  27.724  0.00  0.00    -0.075 N 
ATOM     14  H24 CB8 d   1       5.290  36.740  28.221  0.00  0.00    +0.274 HD
ATOM     15  H25 CB8 d   1       5.557  37.475  26.758  0.00  0.00    +0.274 HD
ATOM     16  H26 CB8 d   1       5.784  38.322  28.167  0.00  0.00    +0.274 HD
ENDBRANCH  12  13
TORSDOF 1
