/inspire/ssd/ws-f4d69b29-e0a5-44e6-bd92-acf4de9990f0/public-project/hurenling-241310070200/LamNet/model/LamNet/data/rbfe/syk-nnp/CHEMBL3265034/CHEMBL3265034.pdb
 OpenBabel01062511123D

 31 36  0  0  0  0  0  0  0  0999 V2000
   42.8300   27.7970   47.6120 C   0  0  0  0  0  0  0  0  0  0  0  0
   44.3310   28.1360   47.6220 C   0  0  0  0  0  0  0  0  0  0  0  0
   44.5730   29.5450   48.1850 C   0  0  0  0  0  0  0  0  0  0  0  0
   43.8590   29.6970   49.5390 C   0  0  0  0  0  0  0  0  0  0  0  0
   42.3810   29.2790   49.4350 C   0  0  0  0  0  0  0  0  0  0  0  0
   42.2840   27.9530   48.9200 O   0  0  0  0  0  0  0  0  0  0  0  0
   46.0630   29.8300   48.3190 C   0  0  0  0  0  0  0  0  0  0  0  0
   46.8360   29.0670   49.1920 C   0  0  0  0  0  0  0  0  0  0  0  0
   48.1850   29.3240   49.3310 C   0  0  0  0  0  0  0  0  0  0  0  0
   48.7960   30.3520   48.6060 C   0  0  0  0  0  0  0  0  0  0  0  0
   50.1750   30.5900   48.8520 N   0  0  0  0  0  0  0  0  0  0  0  0
   51.1140   31.4880   48.2730 C   0  0  0  0  0  0  0  0  0  0  0  0
   50.7590   32.2990   47.2300 N   0  0  0  0  0  0  0  0  0  0  0  0
   51.6910   33.1680   46.7250 C   0  0  0  0  0  0  0  0  0  0  0  0
   52.9970   33.2150   47.2090 C   0  0  0  0  0  0  0  0  0  0  0  0
   53.3260   32.4190   48.2660 N   0  0  0  0  0  0  0  0  0  0  0  0
   54.4780   32.3080   48.9910 C   0  0  0  0  0  0  0  0  0  0  0  0
   54.1690   31.4070   50.0350 C   0  0  0  0  0  0  0  0  0  0  0  0
   52.9560   30.8890   49.8820 N   0  0  0  0  0  0  0  0  0  0  0  0
   52.4150   31.5380   48.8350 C   0  0  0  0  0  0  0  0  0  0  0  0
   51.2140   34.0930   45.6290 C   0  0  0  0  0  0  0  0  0  0  0  0
   52.1200   34.5720   44.6700 C   0  0  0  0  0  0  0  0  0  0  0  0
   51.7180   35.3930   43.6200 C   0  0  0  0  0  0  0  0  0  0  0  0
   50.3710   35.7470   43.5280 C   0  0  0  0  0  0  0  0  0  0  0  0
   49.5630   36.5240   42.6310 C   0  0  0  0  0  0  0  0  0  0  0  0
   48.3230   36.5360   43.0260 N   0  0  0  0  0  0  0  0  0  0  0  0
   48.2360   35.8260   44.1390 N   0  0  0  0  0  0  0  0  0  0  0  0
   49.4600   35.2930   44.5070 C   0  0  0  0  0  0  0  0  0  0  0  0
   49.8490   34.4740   45.5730 C   0  0  0  0  0  0  0  0  0  0  0  0
   48.0250   31.1150   47.7090 C   0  0  0  0  0  0  0  0  0  0  0  0
   46.6560   30.8530   47.5720 C   0  0  0  0  0  0  0  0  0  0  0  0
  1  2  1  0  0  0  0
  1  6  1  0  0  0  0
  2  3  1  0  0  0  0
  3  4  1  0  0  0  0
  3  7  1  0  0  0  0
  4  5  1  0  0  0  0
  5  6  1  0  0  0  0
  7  8  2  0  0  0  0
  7 31  1  0  0  0  0
  8  9  1  0  0  0  0
  9 10  2  0  0  0  0
 10 11  1  0  0  0  0
 10 30  1  0  0  0  0
 11 12  1  0  0  0  0
 12 13  2  0  0  0  0
 12 20  1  0  0  0  0
 13 14  1  0  0  0  0
 14 15  2  0  0  0  0
 14 21  1  0  0  0  0
 15 16  1  0  0  0  0
 16 17  1  0  0  0  0
 16 20  1  0  0  0  0
 17 18  2  0  0  0  0
 18 19  1  0  0  0  0
 19 20  2  0  0  0  0
 21 22  2  0  0  0  0
 21 29  1  0  0  0  0
 22 23  1  0  0  0  0
 23 24  2  0  0  0  0
 24 25  1  0  0  0  0
 24 28  1  0  0  0  0
 25 26  2  0  0  0  0
 26 27  1  0  0  0  0
 27 28  2  0  0  0  0
 28 29  1  0  0  0  0
 30 31  2  0  0  0  0
M  END
>  <COMPND>
    /Users/00mac/Documents/LamNet/model/LamNet/data/rbfe/syk-nnp/CHEMBL3265034/CHEMBL3265034.pdb 

>  <AUTHOR>
    GENERATED BY OPEN BABEL 3.1.0

>  <MASTER>
        0    0    0    0    0    0    0    0   31    0   31    0

$$$$
