REMARK  Name = 9_out.pdbqt
REMARK  1 active torsions:
REMARK  status: ('A' for Active; 'I' for Inactive)
REMARK    1  A    between atoms: C8_8  and  N1_9
REMARK                            x       y       z     vdW  Elec       q    Type
REMARK                         _______ _______ _______ _____ _____    ______ ____
ROOT
ATOM      1  C1  <0> d   1       0.587   0.764   1.446  0.00  0.00    +0.000 C 
ATOM      2  C2  <0> d   1       1.504   0.258   0.330  0.00  0.00    +0.000 C 
ATOM      3  C3  <0> d   1      -0.652   1.519   0.959  0.00  0.00    +0.000 C 
ATOM      4  C4  <0> d   1       1.399  -1.236   0.033  0.00  0.00    +0.002 C 
ATOM      5  C5  <0> d   1      -1.723   0.694   0.242  0.00  0.00    +0.002 C 
ATOM      6  C6  <0> d   1      -0.002  -1.836  -0.079  0.00  0.00    +0.033 C 
ATOM      7  C7  <0> d   1      -1.306   0.179  -1.137  0.00  0.00    +0.033 C 
ATOM      8  C8  <0> d   1      -0.923  -1.302  -1.177  0.00  0.00    +0.183 C 
ENDROOT
BRANCH   8   9
ATOM      9  N1  <0> d   1      -0.312  -1.583  -2.510  0.00  0.00    -0.075 N 
ATOM     10  H16 <0> d   1      -0.690  -2.447  -2.903  0.00  0.00    +0.274 HD
ATOM     11  H17 <0> d   1       0.702  -1.684  -2.423  0.00  0.00    +0.274 HD
ATOM     12  H18 <0> d   1      -0.506  -0.818  -3.160  0.00  0.00    +0.274 HD
ENDBRANCH   8   9
TORSDOF 1
