REMARK  Name = g8_out.pdbqt
REMARK  1 active torsions:
REMARK  status: ('A' for Active; 'I' for Inactive)
REMARK    1  A    between atoms: C10_10  and  N1_11
REMARK                            x       y       z     vdW  Elec       q    Type
REMARK                         _______ _______ _______ _____ _____    ______ ____
ROOT
ATOM      1  C1  UNL d   1       0.581  -2.045  -1.415  0.00  0.00    +0.009 C 
ATOM      2  C2  UNL d   1       1.296  -2.084   0.990  0.00  0.00    +0.009 C 
ATOM      3  C3  UNL d   1      -0.924  -1.103   0.358  0.00  0.00    +0.009 C 
ATOM      4  C4  UNL d   1       0.686  -4.223  -0.172  0.00  0.00    +0.044 C 
ATOM      5  C5  UNL d   1      -1.541  -3.240  -0.806  0.00  0.00    +0.044 C 
ATOM      6  C6  UNL d   1      -0.823  -3.279   1.605  0.00  0.00    +0.044 C 
ATOM      7  C7  UNL d   1       1.351  -2.845  -0.348  0.00  0.00    -0.012 C 
ATOM      8  C8  UNL d   1      -0.884  -1.858  -0.983  0.00  0.00    -0.012 C 
ATOM      9  C9  UNL d   1      -0.164  -1.896   1.436  0.00  0.00    -0.012 C 
ATOM     10  C10 UNL d   1      -0.775  -4.033   0.266  0.00  0.00    +0.129 C 
ENDROOT
BRANCH  10  11
ATOM     11  N1  UNL d   1      -1.411  -5.365   0.434  0.00  0.00    -0.070 N 
ATOM     12  C11 UNL d   1      -1.984  -5.519   1.849  0.00  0.00    +0.272 C 
ATOM     13  C12 UNL d   1      -0.391  -6.488   0.206  0.00  0.00    +0.272 C 
ATOM     14  C13 UNL d   1      -2.559  -5.550  -0.567  0.00  0.00    +0.272 C 
ENDBRANCH  10  11
TORSDOF 1
