REMARK  Name = g2_out.pdbqt
REMARK  6 active torsions:
REMARK  status: ('A' for Active; 'I' for Inactive)
REMARK    1  A    between atoms: C1_1  and  C2_2
REMARK    2  A    between atoms: C1_1  and  C3_8
REMARK    3  A    between atoms: C2_2  and  C4_3
REMARK    4  A    between atoms: C4_3  and  N1_4
REMARK    5  A    between atoms: C3_8  and  C5_9
REMARK    6  A    between atoms: C5_9  and  N2_10
REMARK                            x       y       z     vdW  Elec       q    Type
REMARK                         _______ _______ _______ _____ _____    ______ ____
ROOT
ATOM      1  C1  UNL d   1       0.600  25.673  23.290  0.00  0.00    +0.003 C 
ENDROOT
BRANCH   1   2
ATOM      2  C2  UNL d   1       2.030  25.410  22.809  0.00  0.00    +0.027 C 
BRANCH   2   3
ATOM      3  C4  UNL d   1       3.089  25.725  23.858  0.00  0.00    +0.229 C 
BRANCH   3   4
ATOM      4  N1  UNL d   1       4.412  25.206  23.438  0.00  0.00    -0.079 N 
ATOM      5  H11 UNL d   1       4.585  25.395  22.445  0.00  0.00    +0.274 HD
ATOM      6  H12 UNL d   1       4.470  24.190  23.580  0.00  0.00    +0.274 HD
ATOM      7  H13 UNL d   1       5.168  25.642  23.979  0.00  0.00    +0.274 HD
ENDBRANCH   3   4
ENDBRANCH   2   3
ENDBRANCH   1   2
BRANCH   1   8
ATOM      8  C3  UNL d   1      -0.426  25.236  22.241  0.00  0.00    +0.027 C 
BRANCH   8   9
ATOM      9  C5  UNL d   1      -1.785  24.986  22.878  0.00  0.00    +0.229 C 
BRANCH   9  10
ATOM     10  N2  UNL d   1      -2.823  24.980  21.820  0.00  0.00    -0.079 N 
ATOM     11  H14 UNL d   1      -2.986  25.926  21.458  0.00  0.00    +0.274 HD
ATOM     12  H15 UNL d   1      -3.715  24.624  22.182  0.00  0.00    +0.274 HD
ATOM     13  H16 UNL d   1      -2.543  24.385  21.032  0.00  0.00    +0.274 HD
ENDBRANCH   9  10
ENDBRANCH   8   9
ENDBRANCH   1   8
TORSDOF 6
