REMARK  Name = G4_out.pdbqt
REMARK  5 active torsions:
REMARK  status: ('A' for Active; 'I' for Inactive)
REMARK    1  A    between atoms: C9_1  and  C7_2
REMARK    2  A    between atoms: C9_1  and  C10_7
REMARK    3  A    between atoms: C7_2  and  C1_3
REMARK    4  A    between atoms: C10_7  and  C8_9
REMARK    5  A    between atoms: C8_9  and  C3_10
REMARK                            x       y       z     vdW  Elec       q    Type
REMARK                         _______ _______ _______ _____ _____    ______ ____
ROOT
ATOM      1  C9  TEM d   1      -1.128  -0.444  -3.519  0.00  0.00    +0.008 C 
ENDROOT
BRANCH   1   2
ATOM      2  C10 TEM d   1      -0.087  -0.070  -4.597  0.00  0.00    -0.008 C 
ATOM      3  C6  TEM d   1       1.268  -0.734  -4.330  0.00  0.00    +0.010 C 
BRANCH   2   4
ATOM      4  C8  TEM d   1       0.097   1.456  -4.660  0.00  0.00    +0.117 C 
BRANCH   4   5
ATOM      5  C3  TEM d   1      -0.222   2.125  -6.003  0.00  0.00    +0.172 C 
ATOM      6  O1  TEM d   1      -0.886   1.402  -6.800  0.00  0.00    -0.648 OA
ATOM      7  O2  TEM d   1       0.224   3.294  -6.164  0.00  0.00    -0.648 OA
ENDBRANCH   4   5
ENDBRANCH   2   4
ENDBRANCH   1   2
BRANCH   1   8
ATOM      8  C7  TEM d   1      -1.435   0.701  -2.549  0.00  0.00    +0.028 C 
BRANCH   8   9
ATOM      9  C1  TEM d   1      -1.230   0.271  -1.122  0.00  0.00    -0.025 C 
ATOM     10  C2  TEM d   1      -0.111   0.387  -0.383  0.00  0.00    -0.091 C 
ATOM     11  C4  TEM d   1       0.031  -0.065   1.043  0.00  0.00    +0.042 C 
ATOM     12  C5  TEM d   1       1.134   0.993  -0.972  0.00  0.00    +0.042 C 
ENDBRANCH   8   9
ENDBRANCH   1   8
TORSDOF 5
