REMARK  Name = 4_out.pdbqt
REMARK  1 active torsions:
REMARK  status: ('A' for Active; 'I' for Inactive)
REMARK    1  A    between atoms: C5_5  and  C7_8
REMARK                            x       y       z     vdW  Elec       q    Type
REMARK                         _______ _______ _______ _____ _____    ______ ____
ROOT
ATOM      1  C1  <0> d   1       0.664 -10.133   4.251  0.00  0.00    +0.020 C 
ATOM      2  C2  <0> d   1       2.008  -8.156   4.600  0.00  0.00    +0.020 C 
ATOM      3  C3  <0> d   1      -0.460  -9.333   4.047  0.00  0.00    +0.025 C 
ATOM      4  C4  <0> d   1       0.885  -7.356   4.397  0.00  0.00    +0.025 C 
ATOM      5  C5  <0> d   1       1.898  -9.545   4.528  0.00  0.00    +0.040 C 
ATOM      6  C6  <0> d   1      -0.350  -7.944   4.120  0.00  0.00    +0.034 C 
ATOM      7 Cl1  <0> d   1      -1.736  -6.957   3.866  0.00  0.00    -0.084 Cl
ENDROOT
BRANCH   5   8
ATOM      8  C7  <0> d   1       3.084 -10.390   4.742  0.00  0.00    +0.209 C 
ATOM      9  O1  <0> d   1       4.236  -9.826   4.847  0.00  0.00    -0.644 OA
ATOM     10  O2  <0> d   1       2.930 -11.666   4.817  0.00  0.00    -0.644 OA
ENDBRANCH   5   8
TORSDOF 1
