REMARK  Name = G5_out.pdbqt
REMARK  2 active torsions:
REMARK  status: ('A' for Active; 'I' for Inactive)
REMARK    1  A    between atoms: C12_6  and  C5_8
REMARK    2  A    between atoms: C12_6  and  N1_15
REMARK                            x       y       z     vdW  Elec       q    Type
REMARK                         _______ _______ _______ _____ _____    ______ ____
ROOT
ATOM      1  C7  UNL d   1       8.753  37.258  30.460  0.00  0.00    +0.167 C 
ATOM      2  C8  UNL d   1       9.551  36.003  30.168  0.00  0.00    +0.081 C 
ATOM      3  C9  UNL d   1      11.016  36.348  29.953  0.00  0.00    +0.007 C 
ATOM      4  C10 UNL d   1      11.190  37.437  28.899  0.00  0.00    +0.004 C 
ATOM      5  C11 UNL d   1      10.376  38.683  29.261  0.00  0.00    +0.052 C 
ATOM      6  C12 UNL d   1       8.861  38.397  29.433  0.00  0.00    +0.213 C 
ATOM      7  O1  UNL d   1       8.016  37.318  31.445  0.00  0.00    -0.295 OA
ENDROOT
BRANCH   6   8
ATOM      8  C5  UNL d   1       8.076  38.066  28.160  0.00  0.00    +0.007 C 
ATOM      9  C3  UNL d   1       7.153  37.021  28.205  0.00  0.00    +0.012 C 
ATOM     10  C1  UNL d   1       6.421  36.689  27.064  0.00  0.00    +0.001 C 
ATOM     11  C2  UNL d   1       6.613  37.400  25.881  0.00  0.00    +0.002 C 
ATOM     12  C4  UNL d   1       7.536  38.444  25.836  0.00  0.00    +0.024 C 
ATOM     13  C6  UNL d   1       8.268  38.777  26.975  0.00  0.00    +0.043 C 
ATOM     14 Cl1  UNL d   1       9.402  40.076  26.882  0.00  0.00    -0.084 Cl
ENDBRANCH   6   8
BRANCH   6  15
ATOM     15  N1  UNL d   1       8.288  39.654  30.053  0.00  0.00    -0.059 N 
ATOM     16  C13 UNL d   1       9.310  40.549  30.647  0.00  0.00    +0.269 C 
ATOM     17  H16 UNL d   1       7.761  40.162  29.334  0.00  0.00    +0.278 HD
ATOM     18  H17 UNL d   1       7.608  39.382  30.772  0.00  0.00    +0.278 HD
ENDBRANCH   6  15
TORSDOF 2
