REMARK  Name = 9_out.pdbqt
REMARK  1 active torsions:
REMARK  status: ('A' for Active; 'I' for Inactive)
REMARK    1  A    between atoms: C8_7  and  C1_8
REMARK                            x       y       z     vdW  Elec       q    Type
REMARK                         _______ _______ _______ _____ _____    ______ ____
ROOT
ATOM      1  C2  <0> d   1      -0.284  -7.093   4.934  0.00  0.00    +0.000 C 
ATOM      2  C3  <0> d   1      -1.416  -8.005   4.469  0.00  0.00    +0.000 C 
ATOM      3  C4  <0> d   1       1.035  -7.366   4.210  0.00  0.00    +0.001 C 
ATOM      4  C5  <0> d   1      -1.505  -9.351   5.188  0.00  0.00    +0.001 C 
ATOM      5  C6  <0> d   1       1.739  -8.661   4.606  0.00  0.00    +0.015 C 
ATOM      6  C7  <0> d   1      -0.190 -10.051   5.522  0.00  0.00    +0.015 C 
ATOM      7  C8  <0> d   1       0.886  -9.918   4.450  0.00  0.00    +0.087 C 
ENDROOT
BRANCH   7   8
ATOM      8  C1  <0> d   1       1.848 -11.074   4.677  0.00  0.00    +0.177 C 
ATOM      9  O1  <0> d   1       1.306 -12.201   4.849  0.00  0.00    -0.648 OA
ATOM     10  O2  <0> d   1       3.071 -10.756   4.663  0.00  0.00    -0.648 OA
ENDBRANCH   7   8
TORSDOF 1
