REMARK  Name = G2_out.pdbqt
REMARK  1 active torsions:
REMARK  status: ('A' for Active; 'I' for Inactive)
REMARK    1  A    between atoms: N1_13  and  C19_15
REMARK                            x       y       z     vdW  Elec       q    Type
REMARK                         _______ _______ _______ _____ _____    ______ ____
ROOT
ATOM      1  C1  CB8 d   1      10.335  35.875  29.304  0.00  0.00    +0.002 C 
ATOM      2  C2  CB8 d   1      10.902  36.622  30.334  0.00  0.00    +0.017 C 
ATOM      3  C3  CB8 d   1       9.464  36.477  28.398  0.00  0.00    +0.007 C 
ATOM      4  C4  CB8 d   1      10.593  37.981  30.460  0.00  0.00    +0.039 C 
ATOM      5  C5  CB8 d   1       9.156  37.841  28.503  0.00  0.00    -0.050 C 
ATOM      6  C6  CB8 d   1       9.719  38.598  29.548  0.00  0.00    -0.030 C 
ATOM      7  C7  CB8 d   1      11.204  38.767  31.567  0.00  0.00    +0.254 C 
ATOM      8  C8  CB8 d   1       8.168  38.443  27.534  0.00  0.00    +0.039 C 
ATOM      9  C9  CB8 d   1       8.160  39.969  27.534  0.00  0.00    +0.005 C 
ATOM     10  C10 CB8 d   1       8.167  40.508  28.960  0.00  0.00    +0.011 C 
ATOM     11  C13 CB8 d   1       9.423  40.461  31.147  0.00  0.00    +0.136 C 
ATOM     12  C17 CB8 d   1       9.455  40.080  29.670  0.00  0.00    +0.038 C 
ATOM     13  N1  CB8 d   1      10.639  40.020  31.826  0.00  0.00    -0.341 N 
ATOM     14  O1  CB8 d   1      12.152  38.288  32.185  0.00  0.00    -0.267 OA
ENDROOT
BRANCH  13  15
ATOM     15  C19 CB8 d   1      11.121  40.839  32.926  0.00  0.00    +0.117 C 
ATOM     16  C16 CB8 d   1      10.087  41.898  33.329  0.00  0.00    +0.260 C 
ATOM     17  N2  CB8 d   1      10.767  43.255  33.322  0.00  0.00    -0.069 N 
ATOM     18  C14 CB8 d   1      11.236  43.607  31.926  0.00  0.00    +0.235 C 
ATOM     19  C15 CB8 d   1      11.924  43.282  34.298  0.00  0.00    +0.235 C 
ATOM     20  H25 CB8 d   1      10.078  43.961  33.618  0.00  0.00    +0.280 HD
ATOM     21  C11 CB8 d   1      12.263  42.565  31.486  0.00  0.00    +0.034 C 
ATOM     22  C18 CB8 d   1      12.471  41.511  32.591  0.00  0.00    +0.013 C 
ATOM     23  C12 CB8 d   1      12.957  42.245  33.853  0.00  0.00    +0.034 C 
ENDBRANCH  13  15
TORSDOF 1
