REMARK  Name = 7_out.pdbqt
REMARK  1 active torsions:
REMARK  status: ('A' for Active; 'I' for Inactive)
REMARK    1  A    between atoms: C6_6  and  N1_7
REMARK                            x       y       z     vdW  Elec       q    Type
REMARK                         _______ _______ _______ _____ _____    ______ ____
ROOT
ATOM      1  C1  <0> d   1      -0.065  -1.639  -0.137  0.00  0.00    +0.000 C 
ATOM      2  C2  <0> d   1       1.331  -1.243   0.333  0.00  0.00    +0.002 C 
ATOM      3  C3  <0> d   1      -1.146  -0.759   0.487  0.00  0.00    +0.002 C 
ATOM      4  C4  <0> d   1       1.612   0.239   0.089  0.00  0.00    +0.033 C 
ATOM      5  C5  <0> d   1      -0.877   0.725   0.243  0.00  0.00    +0.033 C 
ATOM      6  C6  <0> d   1       0.530   1.156   0.661  0.00  0.00    +0.183 C 
ENDROOT
BRANCH   6   7
ATOM      7  N1  <0> d   1       0.622   1.156   2.150  0.00  0.00    -0.075 N 
ATOM      8  H12 <0> d   1       0.901   2.078   2.493  0.00  0.00    +0.274 HD
ATOM      9  H13 <0> d   1       1.311   0.471   2.467  0.00  0.00    +0.274 HD
ATOM     10  H14 <0> d   1      -0.283   0.918   2.564  0.00  0.00    +0.274 HD
ENDBRANCH   6   7
TORSDOF 1
