REMARK  Name = G5_out.pdbqt
REMARK  3 active torsions:
REMARK  status: ('A' for Active; 'I' for Inactive)
REMARK    1  A    between atoms: C6_2  and  C3_3
REMARK    2  A    between atoms: C6_2  and  C5_6
REMARK    3  A    between atoms: C5_6  and  C2_7
REMARK                            x       y       z     vdW  Elec       q    Type
REMARK                         _______ _______ _______ _____ _____    ______ ____
ROOT
ATOM      1  C4  TEM d   1      -0.242   1.320  -3.445  0.00  0.00    +0.021 C 
ATOM      2  C6  TEM d   1      -0.257   0.498  -2.157  0.00  0.00    +0.086 C 
ENDROOT
BRANCH   2   3
ATOM      3  C3  TEM d   1       0.084  -0.940  -2.596  0.00  0.00    +0.176 C 
ATOM      4  O1  TEM d   1      -0.712  -1.842  -2.216  0.00  0.00    -0.648 OA
ATOM      5  O2  TEM d   1       1.138  -1.041  -3.288  0.00  0.00    -0.648 OA
ENDBRANCH   2   3
BRANCH   2   6
ATOM      6  C5  TEM d   1       0.709   1.092  -1.125  0.00  0.00    +0.041 C 
BRANCH   6   7
ATOM      7  C2  TEM d   1       0.814   0.235   0.104  0.00  0.00    -0.036 C 
ATOM      8  C1  TEM d   1      -0.224  -0.086   0.886  0.00  0.00    +0.007 C 
ENDBRANCH   6   7
ENDBRANCH   2   6
TORSDOF 3
