REMARK  Name = G13_out.pdbqt
REMARK  1 active torsions:
REMARK  status: ('A' for Active; 'I' for Inactive)
REMARK    1  A    between atoms: C9_9  and  C10_10
REMARK                            x       y       z     vdW  Elec       q    Type
REMARK                         _______ _______ _______ _____ _____    ______ ____
ROOT
ATOM      1  C1  UNL d   1       1.686   1.195   0.024  0.00  0.00    +0.029 C 
ATOM      2  C2  UNL d   1       0.094   0.593  -1.680  0.00  0.00    +0.029 C 
ATOM      3  C5  UNL d   1       1.347   2.526  -0.171  0.00  0.00    +0.090 C 
ATOM      4  C6  UNL d   1      -0.205   1.940  -1.834  0.00  0.00    +0.090 C 
ATOM      5  C9  UNL d   1       1.049   0.222  -0.740  0.00  0.00    -0.023 C 
ATOM      6  C11 UNL d   1       0.086   4.265  -1.266  0.00  0.00    +0.154 C 
ATOM      7  N1  UNL d   1       0.422   2.857  -1.084  0.00  0.00    -0.371 N 
ENDROOT
BRANCH   5  12
ATOM      8  C3  UNL d   1       1.797  -1.635   0.688  0.00  0.00    +0.029 C 
ATOM      9  C4  UNL d   1       1.284  -2.060  -1.627  0.00  0.00    +0.029 C 
ATOM     10  C7  UNL d   1       2.111  -2.978   0.834  0.00  0.00    +0.090 C 
ATOM     11  C8  UNL d   1       1.609  -3.393  -1.422  0.00  0.00    +0.090 C 
ATOM     12  C10 UNL d   1       1.380  -1.175  -0.557  0.00  0.00    -0.023 C 
ATOM     13  C12 UNL d   1       2.346  -5.218  -0.028  0.00  0.00    +0.154 C 
ATOM     14  N2  UNL d   1       2.009  -3.809  -0.213  0.00  0.00    -0.371 N 
ENDBRANCH   5  12
TORSDOF 1
