REMARK  Name = G2_out.pdbqt
REMARK  2 active torsions:
REMARK  status: ('A' for Active; 'I' for Inactive)
REMARK    1  A    between atoms: C3_3  and  C7_7
REMARK    2  A    between atoms: C6_6  and  C8_9
REMARK                            x       y       z     vdW  Elec       q    Type
REMARK                         _______ _______ _______ _____ _____    ______ ____
ROOT
ATOM      1  C1  MOL d   1      -0.590  -1.131  -3.796  0.00  0.00    +0.020 C 
ATOM      2  C2  MOL d   1      -0.275  -1.119  -2.443  0.00  0.00    +0.024 C 
ATOM      3  C3  MOL d   1      -0.672  -0.052  -1.633  0.00  0.00    +0.044 C 
ATOM      4  C4  MOL d   1      -1.391   1.003  -2.202  0.00  0.00    +0.024 C 
ATOM      5  C5  MOL d   1      -1.706   0.991  -3.555  0.00  0.00    +0.020 C 
ATOM      6  C6  MOL d   1      -1.311  -0.077  -4.378  0.00  0.00    +0.040 C 
ENDROOT
BRANCH   6   7
ATOM      7  C8  MOL d   1      -1.645  -0.090  -5.812  0.00  0.00    +0.209 C 
ATOM      8  O1  MOL d   1      -1.169  -0.995  -6.552  0.00  0.00    -0.644 OA
ATOM      9  O2  MOL d   1      -2.401   0.805  -6.281  0.00  0.00    -0.644 OA
ENDBRANCH   6   7
BRANCH   3  10
ATOM     10  C7  MOL d   1      -0.346  -0.040  -0.232  0.00  0.00    +0.099 C 
ATOM     11  N1  MOL d   1      -0.087  -0.030   0.883  0.00  0.00    -0.191 NA
ENDBRANCH   3  10
TORSDOF 2
