REMARK  Name = G0_out.pdbqt
REMARK  2 active torsions:
REMARK  status: ('A' for Active; 'I' for Inactive)
REMARK    1  A    between atoms: C6_5  and  C7_6
REMARK    2  A    between atoms: C7_6  and  C1_7
REMARK                            x       y       z     vdW  Elec       q    Type
REMARK                         _______ _______ _______ _____ _____    ______ ____
ROOT
ATOM      1  C2  TEM d   1       0.850   0.289   0.068  0.00  0.00    +0.000 C 
ATOM      2  C3  TEM d   1      -0.613  -0.149   0.137  0.00  0.00    +0.000 C 
ATOM      3  C4  TEM d   1       1.013   1.019  -1.262  0.00  0.00    +0.005 C 
ATOM      4  C5  TEM d   1      -1.265   0.355  -1.146  0.00  0.00    +0.005 C 
ATOM      5  C6  TEM d   1      -0.106   0.457  -2.132  0.00  0.00    -0.005 C 
ENDROOT
BRANCH   5   6
ATOM      6  C7  TEM d   1      -0.420   1.325  -3.338  0.00  0.00    +0.117 C 
BRANCH   6   7
ATOM      7  C1  TEM d   1       0.280   0.917  -4.636  0.00  0.00    +0.172 C 
ATOM      8  O1  TEM d   1       0.859  -0.203  -4.640  0.00  0.00    -0.648 OA
ATOM      9  O2  TEM d   1       0.186   1.774  -5.562  0.00  0.00    -0.648 OA
ENDBRANCH   6   7
ENDBRANCH   5   6
TORSDOF 2
