REMARK  Name = G4_out.pdbqt
REMARK  2 active torsions:
REMARK  status: ('A' for Active; 'I' for Inactive)
REMARK    1  A    between atoms: C4_1  and  N1_2
REMARK    2  A    between atoms: C4_1  and  Si1_6
REMARK                            x       y       z     vdW  Elec       q    Type
REMARK                         _______ _______ _______ _____ _____    ______ ____
ROOT
ATOM      1  C4  UNL d   1      -0.830   0.378   1.309  0.00  0.00    +0.256 C 
ENDROOT
BRANCH   1   2
ATOM      2  N1  UNL d   1      -1.383  -1.000   1.291  0.00  0.00    -0.078 N 
ATOM      3  H12 UNL d   1      -1.986  -1.185   2.104  0.00  0.00    +0.274 HD
ATOM      4  H13 UNL d   1      -1.936  -1.183   0.442  0.00  0.00    +0.274 HD
ATOM      5  H14 UNL d   1      -0.626  -1.697   1.312  0.00  0.00    +0.274 HD
ENDBRANCH   1   2
BRANCH   1   6
ATOM      6 Si1  UNL d   1       0.676   0.504   0.217  0.00  0.00    +0.000 Si
ATOM      7  C1  UNL d   1       0.163   0.646  -1.582  0.00  0.00    +0.000 C 
ATOM      8  C2  UNL d   1       1.700   2.002   0.693  0.00  0.00    +0.000 C 
ATOM      9  C3  UNL d   1       1.721  -1.043   0.433  0.00  0.00    +0.000 C 
ENDBRANCH   1   6
TORSDOF 2
