REMARK  Name = G4_out.pdbqt
REMARK  1 active torsions:
REMARK  status: ('A' for Active; 'I' for Inactive)
REMARK    1  A    between atoms: C4_4  and  C7_10
REMARK                            x       y       z     vdW  Elec       q    Type
REMARK                         _______ _______ _______ _____ _____    ______ ____
ROOT
ATOM      1  C1  UNL d   1       0.179  -4.158   0.969  0.00  0.00    +0.021 C 
ATOM      2  C2  UNL d   1       0.282  -2.906   1.582  0.00  0.00    +0.041 C 
ATOM      3  C3  UNL d   1      -0.253  -3.113  -1.188  0.00  0.00    +0.058 C 
ATOM      4  C4  UNL d   1      -0.086  -4.260  -0.408  0.00  0.00    +0.043 C 
ATOM      5  C5  UNL d   1       0.114  -1.789   0.790  0.00  0.00    +0.105 C 
ATOM      6  C6  UNL d   1      -0.146  -1.890  -0.558  0.00  0.00    +0.106 C 
ATOM      7  C8  UNL d   1      -0.069   0.206  -0.027  0.00  0.00    +0.352 C 
ATOM      8  O3  UNL d   1       0.180  -0.496   1.209  0.00  0.00    -0.323 OA
ATOM      9  O4  UNL d   1      -0.276  -0.671  -1.152  0.00  0.00    -0.323 OA
ENDROOT
BRANCH   4  10
ATOM     10  C7  UNL d   1      -0.191  -5.589  -1.034  0.00  0.00    +0.209 C 
ATOM     11  O1  UNL d   1      -0.614  -5.670  -2.248  0.00  0.00    -0.644 OA
ATOM     12  O2  UNL d   1       0.144  -6.625  -0.346  0.00  0.00    -0.644 OA
ENDBRANCH   4  10
TORSDOF 1
