REMARK  Name = 13_out.pdbqt
REMARK  1 active torsions:
REMARK  status: ('A' for Active; 'I' for Inactive)
REMARK    1  A    between atoms: C9_9  and  N1_10
REMARK                            x       y       z     vdW  Elec       q    Type
REMARK                         _______ _______ _______ _____ _____    ______ ____
ROOT
ATOM      1  C1  <0> d   1       0.479   0.899  -1.096  0.00  0.00    +0.009 C 
ATOM      2  C2  <0> d   1       1.369  -1.113   0.144  0.00  0.00    +0.011 C 
ATOM      3  C3  <0> d   1      -0.833  -1.254  -0.962  0.00  0.00    +0.011 C 
ATOM      4  C4  <0> d   1       0.623   0.694   1.419  0.00  0.00    +0.043 C 
ATOM      5  C5  <0> d   1      -1.596   0.551   0.305  0.00  0.00    +0.043 C 
ATOM      6  C6  <0> d   1       1.354   0.419   0.101  0.00  0.00    -0.011 C 
ATOM      7  C7  <0> d   1      -0.947   0.271  -1.054  0.00  0.00    -0.011 C 
ATOM      8  C8  <0> d   1      -0.119  -1.417   0.391  0.00  0.00    +0.022 C 
ATOM      9  C9  <0> d   1      -0.616  -0.187   1.223  0.00  0.00    +0.128 C 
ENDROOT
BRANCH   9  10
ATOM     10  N1  <0> d   1      -1.231  -0.561   2.496  0.00  0.00    -0.070 N 
ATOM     11  H14 <0> d   1      -0.878  -1.467   2.847  0.00  0.00    +0.275 HD
ATOM     12  H15 <0> d   1      -2.258  -0.651   2.419  0.00  0.00    +0.275 HD
ATOM     13  H16 <0> d   1      -1.048   0.136   3.236  0.00  0.00    +0.275 HD
ENDBRANCH   9  10
TORSDOF 1
