REMARK  Name = g8_out.pdbqt
REMARK  1 active torsions:
REMARK  status: ('A' for Active; 'I' for Inactive)
REMARK    1  A    between atoms: C10_10  and  N1_11
REMARK                            x       y       z     vdW  Elec       q    Type
REMARK                         _______ _______ _______ _____ _____    ______ ____
ROOT
ATOM      1  C1  UNL d   1       0.193  -0.872  -1.355  0.00  0.00    +0.009 C 
ATOM      2  C2  UNL d   1      -1.521   0.713  -2.276  0.00  0.00    +0.009 C 
ATOM      3  C3  UNL d   1       0.903   1.357  -2.261  0.00  0.00    +0.009 C 
ATOM      4  C4  UNL d   1      -0.958  -1.391  -3.524  0.00  0.00    +0.044 C 
ATOM      5  C5  UNL d   1       1.474  -0.744  -3.510  0.00  0.00    +0.044 C 
ATOM      6  C6  UNL d   1      -0.245   0.845  -4.433  0.00  0.00    +0.044 C 
ATOM      7  C7  UNL d   1      -1.136  -0.771  -2.125  0.00  0.00    -0.012 C 
ATOM      8  C8  UNL d   1       1.304  -0.121  -2.111  0.00  0.00    -0.012 C 
ATOM      9  C9  UNL d   1      -0.420   1.473  -3.037  0.00  0.00    -0.012 C 
ATOM     10  C10 UNL d   1       0.147  -0.634  -4.280  0.00  0.00    +0.129 C 
ENDROOT
BRANCH  10  11
ATOM     11  N1  UNL d   1       0.316  -1.236  -5.628  0.00  0.00    -0.070 N 
ATOM     12  C11 UNL d   1       1.709  -1.861  -5.774  0.00  0.00    +0.272 C 
ATOM     13  C12 UNL d   1       0.152  -0.173  -6.722  0.00  0.00    +0.272 C 
ATOM     14  C13 UNL d   1      -0.728  -2.334  -5.868  0.00  0.00    +0.272 C 
ENDBRANCH  10  11
TORSDOF 1
