/inspire/ssd/ws-f4d69b29-e0a5-44e6-bd92-acf4de9990f0/public-project/hurenling-241310070200/LamNet/model/LamNet/data/rbfe/syk-nnp/CHEMBL3265033/CHEMBL3265033.pdb
 OpenBabel01062511123D

 33 38  0  0  0  0  0  0  0  0999 V2000
   41.8310   26.3460   47.2320 O   0  0  0  0  0  0  0  0  0  0  0  0
   42.1600   27.7580   47.4990 S   0  0  0  0  0  0  0  0  0  0  0  0
   41.0870   28.7730   47.4870 O   0  0  0  0  0  0  0  0  0  0  0  0
   43.4980   28.2830   46.3230 C   0  0  0  0  0  0  0  0  0  0  0  0
   44.0630   29.6330   46.7930 C   0  0  0  0  0  0  0  0  0  0  0  0
   44.7280   29.5310   48.0960 N   0  0  0  0  0  0  0  0  0  0  0  0
   43.7720   29.2680   49.1900 C   0  0  0  0  0  0  0  0  0  0  0  0
   43.1110   27.8810   49.0940 C   0  0  0  0  0  0  0  0  0  0  0  0
   46.0700   29.8260   48.2890 C   0  0  0  0  0  0  0  0  0  0  0  0
   46.8230   29.0910   49.1990 C   0  0  0  0  0  0  0  0  0  0  0  0
   48.1790   29.3420   49.3480 C   0  0  0  0  0  0  0  0  0  0  0  0
   48.8030   30.3570   48.6190 C   0  0  0  0  0  0  0  0  0  0  0  0
   50.1840   30.5700   48.8470 N   0  0  0  0  0  0  0  0  0  0  0  0
   51.1070   31.4950   48.2920 C   0  0  0  0  0  0  0  0  0  0  0  0
   50.7380   32.3250   47.2650 N   0  0  0  0  0  0  0  0  0  0  0  0
   51.6720   33.1700   46.7350 C   0  0  0  0  0  0  0  0  0  0  0  0
   52.9800   33.2130   47.2030 C   0  0  0  0  0  0  0  0  0  0  0  0
   53.3180   32.4240   48.2680 N   0  0  0  0  0  0  0  0  0  0  0  0
   54.4710   32.3180   48.9860 C   0  0  0  0  0  0  0  0  0  0  0  0
   54.1750   31.3910   50.0180 C   0  0  0  0  0  0  0  0  0  0  0  0
   52.9630   30.8800   49.8680 N   0  0  0  0  0  0  0  0  0  0  0  0
   52.4110   31.5380   48.8340 C   0  0  0  0  0  0  0  0  0  0  0  0
   51.2000   34.0840   45.6290 C   0  0  0  0  0  0  0  0  0  0  0  0
   52.1160   34.5720   44.6760 C   0  0  0  0  0  0  0  0  0  0  0  0
   51.7280   35.3930   43.6180 C   0  0  0  0  0  0  0  0  0  0  0  0
   50.3810   35.7480   43.5240 C   0  0  0  0  0  0  0  0  0  0  0  0
   49.5720   36.5330   42.6280 C   0  0  0  0  0  0  0  0  0  0  0  0
   48.3310   36.5410   43.0280 N   0  0  0  0  0  0  0  0  0  0  0  0
   48.2430   35.8130   44.1410 N   0  0  0  0  0  0  0  0  0  0  0  0
   49.4600   35.2800   44.5000 C   0  0  0  0  0  0  0  0  0  0  0  0
   49.8370   34.4470   45.5630 C   0  0  0  0  0  0  0  0  0  0  0  0
   48.0440   31.1240   47.7200 C   0  0  0  0  0  0  0  0  0  0  0  0
   46.6860   30.8500   47.5510 C   0  0  0  0  0  0  0  0  0  0  0  0
  1  2  2  0  0  0  0
  2  3  2  0  0  0  0
  2  4  1  0  0  0  0
  2  8  1  0  0  0  0
  4  5  1  0  0  0  0
  5  6  1  0  0  0  0
  6  7  1  0  0  0  0
  6  9  1  0  0  0  0
  7  8  1  0  0  0  0
  9 10  2  0  0  0  0
  9 33  1  0  0  0  0
 10 11  1  0  0  0  0
 11 12  2  0  0  0  0
 12 13  1  0  0  0  0
 12 32  1  0  0  0  0
 13 14  1  0  0  0  0
 14 15  2  0  0  0  0
 14 22  1  0  0  0  0
 15 16  1  0  0  0  0
 16 17  2  0  0  0  0
 16 23  1  0  0  0  0
 17 18  1  0  0  0  0
 18 19  1  0  0  0  0
 18 22  1  0  0  0  0
 19 20  2  0  0  0  0
 20 21  1  0  0  0  0
 21 22  2  0  0  0  0
 23 24  2  0  0  0  0
 23 31  1  0  0  0  0
 24 25  1  0  0  0  0
 25 26  2  0  0  0  0
 26 27  1  0  0  0  0
 26 30  1  0  0  0  0
 27 28  2  0  0  0  0
 28 29  1  0  0  0  0
 29 30  2  0  0  0  0
 30 31  1  0  0  0  0
 32 33  2  0  0  0  0
M  END
>  <COMPND>
    /Users/00mac/Documents/LamNet/model/LamNet/data/rbfe/syk-nnp/CHEMBL3265033/CHEMBL3265033.pdb 

>  <AUTHOR>
    GENERATED BY OPEN BABEL 3.1.0

>  <MASTER>
        0    0    0    0    0    0    0    0   33    0   33    0

$$$$
