REMARK  Name = G5_out.pdbqt
REMARK  1 active torsions:
REMARK  status: ('A' for Active; 'I' for Inactive)
REMARK    1  A    between atoms: C5_5  and  C7_8
REMARK                            x       y       z     vdW  Elec       q    Type
REMARK                         _______ _______ _______ _____ _____    ______ ____
ROOT
ATOM      1  C1  UNL d   1      -0.471  -2.956   1.180  0.00  0.00    +0.019 C 
ATOM      2  C2  UNL d   1       0.578  -2.879  -0.994  0.00  0.00    +0.019 C 
ATOM      3  C3  UNL d   1      -0.507  -1.563   1.212  0.00  0.00    +0.008 C 
ATOM      4  C4  UNL d   1       0.542  -1.485  -0.963  0.00  0.00    +0.008 C 
ATOM      5  C5  UNL d   1       0.072  -3.615   0.077  0.00  0.00    +0.040 C 
ATOM      6  C6  UNL d   1      -0.001  -0.827   0.141  0.00  0.00    -0.062 C 
ATOM      7  C8  UNL d   1      -0.043   0.663   0.175  0.00  0.00    +0.048 C 
ENDROOT
BRANCH   5   8
ATOM      8  C7  UNL d   1       0.110  -5.085   0.045  0.00  0.00    +0.209 C 
ATOM      9  O1  UNL d   1       0.238  -5.727   1.154  0.00  0.00    -0.644 OA
ATOM     10  O2  UNL d   1       0.014  -5.684  -1.092  0.00  0.00    -0.644 OA
ENDBRANCH   5   8
TORSDOF 1
