REMARK  Name = g10_out.pdbqt
REMARK  2 active torsions:
REMARK  status: ('A' for Active; 'I' for Inactive)
REMARK    1  A    between atoms: C13_13  and  N1_15
REMARK    2  A    between atoms: C14_14  and  N2_19
REMARK                            x       y       z     vdW  Elec       q    Type
REMARK                         _______ _______ _______ _____ _____    ______ ____
ROOT
ATOM      1  C1  UNL d   1       6.836  26.990  27.634  0.00  0.00    +0.044 C 
ATOM      2  C2  UNL d   1       4.410  27.634  27.540  0.00  0.00    +0.044 C 
ATOM      3  C3  UNL d   1       5.061  25.218  27.748  0.00  0.00    +0.044 C 
ATOM      4  C4  UNL d   1       5.872  27.716  23.939  0.00  0.00    +0.044 C 
ATOM      5  C5  UNL d   1       6.522  25.300  24.147  0.00  0.00    +0.044 C 
ATOM      6  C6  UNL d   1       4.097  25.944  24.053  0.00  0.00    +0.044 C 
ATOM      7  C7  UNL d   1       6.870  26.867  26.100  0.00  0.00    -0.003 C 
ATOM      8  C8  UNL d   1       4.431  27.514  26.006  0.00  0.00    -0.003 C 
ATOM      9  C9  UNL d   1       5.084  25.084  26.216  0.00  0.00    -0.003 C 
ATOM     10  C10 UNL d   1       5.848  27.849  25.471  0.00  0.00    -0.003 C 
ATOM     11  C11 UNL d   1       6.502  25.420  25.681  0.00  0.00    -0.003 C 
ATOM     12  C12 UNL d   1       4.062  26.067  25.586  0.00  0.00    -0.003 C 
ATOM     13  C13 UNL d   1       5.426  26.655  28.142  0.00  0.00    +0.125 C 
ATOM     14  C14 UNL d   1       5.506  26.279  23.545  0.00  0.00    +0.125 C 
ENDROOT
BRANCH  13  15
ATOM     15  N1  UNL d   1       5.401  26.776  29.622  0.00  0.00    -0.070 N 
ATOM     16  H19 UNL d   1       6.290  27.144  29.975  0.00  0.00    +0.275 HD
ATOM     17  H20 UNL d   1       5.241  25.861  30.059  0.00  0.00    +0.275 HD
ATOM     18  H21 UNL d   1       4.652  27.407  29.925  0.00  0.00    +0.275 HD
ENDBRANCH  13  15
BRANCH  14  19
ATOM     19  N2  UNL d   1       5.531  26.158  22.065  0.00  0.00    -0.070 N 
ATOM     20  H22 UNL d   1       6.097  25.355  21.772  0.00  0.00    +0.275 HD
ATOM     21  H23 UNL d   1       5.932  27.000  21.637  0.00  0.00    +0.275 HD
ATOM     22  H24 UNL d   1       4.585  26.034  21.692  0.00  0.00    +0.275 HD
ENDBRANCH  14  19
TORSDOF 2
