/inspire/ssd/ws-f4d69b29-e0a5-44e6-bd92-acf4de9990f0/public-project/hurenling-241310070200/LamNet/model/LamNet/data/rbfe/syk-nnp/CHEMBL3265013/CHEMBL3265013.pdb
 OpenBabel01062511123D

 30 33  0  0  0  0  0  0  0  0999 V2000
   44.3130   28.8430   47.1540 C   0  0  0  0  0  0  0  0  0  0  0  0
   44.7190   29.5670   48.3050 O   0  0  0  0  0  0  0  0  0  0  0  0
   46.0670   29.8100   48.3890 C   0  0  0  0  0  0  0  0  0  0  0  0
   46.8590   29.0280   49.2240 C   0  0  0  0  0  0  0  0  0  0  0  0
   48.2180   29.2820   49.3420 C   0  0  0  0  0  0  0  0  0  0  0  0
   48.8200   30.3210   48.6280 C   0  0  0  0  0  0  0  0  0  0  0  0
   50.2090   30.5380   48.8410 N   0  0  0  0  0  0  0  0  0  0  0  0
   51.1260   31.4740   48.2960 C   0  0  0  0  0  0  0  0  0  0  0  0
   50.7420   32.3250   47.2950 N   0  0  0  0  0  0  0  0  0  0  0  0
   51.6720   33.1810   46.7770 C   0  0  0  0  0  0  0  0  0  0  0  0
   52.9850   33.2170   47.2240 C   0  0  0  0  0  0  0  0  0  0  0  0
   53.3400   32.3970   48.2570 N   0  0  0  0  0  0  0  0  0  0  0  0
   54.5040   32.2750   48.9460 C   0  0  0  0  0  0  0  0  0  0  0  0
   54.2210   31.3350   49.9610 C   0  0  0  0  0  0  0  0  0  0  0  0
   53.0110   30.8120   49.8150 N   0  0  0  0  0  0  0  0  0  0  0  0
   52.4420   31.5080   48.8190 C   0  0  0  0  0  0  0  0  0  0  0  0
   51.1910   34.1160   45.7070 C   0  0  0  0  0  0  0  0  0  0  0  0
   52.0810   34.6380   44.7500 C   0  0  0  0  0  0  0  0  0  0  0  0
   51.6290   35.4880   43.7500 C   0  0  0  0  0  0  0  0  0  0  0  0
   50.2740   35.8460   43.6750 C   0  0  0  0  0  0  0  0  0  0  0  0
   49.8120   36.7570   42.5570 C   0  0  0  0  0  0  0  0  0  0  0  0
   50.5670   37.5940   42.0730 O   0  0  0  0  0  0  0  0  0  0  0  0
   48.5660   36.5570   42.1190 N   0  0  0  0  0  0  0  0  0  0  0  0
   49.3730   35.3470   44.6590 C   0  0  0  0  0  0  0  0  0  0  0  0
   47.8990   35.7630   44.6770 C   0  0  0  0  0  0  0  0  0  0  0  0
   49.8400   34.4930   45.6520 C   0  0  0  0  0  0  0  0  0  0  0  0
   48.0320   31.1140   47.7640 C   0  0  0  0  0  0  0  0  0  0  0  0
   46.6390   30.8510   47.6520 C   0  0  0  0  0  0  0  0  0  0  0  0
   45.8180   31.6160   46.8340 O   0  0  0  0  0  0  0  0  0  0  0  0
   46.3500   32.4290   45.8060 C   0  0  0  0  0  0  0  0  0  0  0  0
  1  2  1  0  0  0  0
  2  3  1  0  0  0  0
  3  4  2  0  0  0  0
  3 28  1  0  0  0  0
  4  5  1  0  0  0  0
  5  6  2  0  0  0  0
  6  7  1  0  0  0  0
  6 27  1  0  0  0  0
  7  8  1  0  0  0  0
  8  9  2  0  0  0  0
  8 16  1  0  0  0  0
  9 10  1  0  0  0  0
 10 11  2  0  0  0  0
 10 17  1  0  0  0  0
 11 12  1  0  0  0  0
 12 13  1  0  0  0  0
 12 16  1  0  0  0  0
 13 14  2  0  0  0  0
 14 15  1  0  0  0  0
 15 16  2  0  0  0  0
 17 18  2  0  0  0  0
 17 26  1  0  0  0  0
 18 19  1  0  0  0  0
 19 20  2  0  0  0  0
 20 21  1  0  0  0  0
 20 24  1  0  0  0  0
 21 22  2  0  0  0  0
 21 23  1  0  0  0  0
 24 25  1  0  0  0  0
 24 26  2  0  0  0  0
 27 28  2  0  0  0  0
 28 29  1  0  0  0  0
 29 30  1  0  0  0  0
M  END
>  <COMPND>
    /Users/00mac/Documents/LamNet/model/LamNet/data/rbfe/syk-nnp/CHEMBL3265013/CHEMBL3265013.pdb 

>  <AUTHOR>
    GENERATED BY OPEN BABEL 3.1.0

>  <MASTER>
        0    0    0    0    0    0    0    0   30    0   30    0

$$$$
