REMARK  Name = G7_out.pdbqt
REMARK  1 active torsions:
REMARK  status: ('A' for Active; 'I' for Inactive)
REMARK    1  A    between atoms: C8_8  and  N1_9
REMARK                            x       y       z     vdW  Elec       q    Type
REMARK                         _______ _______ _______ _____ _____    ______ ____
ROOT
ATOM      1  C1  CB8 d   1       8.605  38.666  30.554  0.00  0.00    +0.000 C 
ATOM      2  C2  CB8 d   1       7.536  39.098  29.554  0.00  0.00    +0.000 C 
ATOM      3  C3  CB8 d   1       8.347  37.300  31.184  0.00  0.00    +0.000 C 
ATOM      4  C4  CB8 d   1       7.058  38.052  28.545  0.00  0.00    +0.002 C 
ATOM      5  C5  CB8 d   1       9.341  36.215  30.776  0.00  0.00    +0.002 C 
ATOM      6  C6  CB8 d   1       8.152  37.390  27.708  0.00  0.00    +0.033 C 
ATOM      7  C7  CB8 d   1       9.801  36.157  29.317  0.00  0.00    +0.033 C 
ATOM      8  C8  CB8 d   1       8.760  36.067  28.200  0.00  0.00    +0.183 C 
ENDROOT
BRANCH   8   9
ATOM      9  N1  CB8 d   1       7.707  35.077  28.536  0.00  0.00    -0.075 N 
ATOM     10  H16 CB8 d   1       7.388  34.594  27.694  0.00  0.00    +0.274 HD
ATOM     11  H17 CB8 d   1       6.903  35.543  28.964  0.00  0.00    +0.274 HD
ATOM     12  H18 CB8 d   1       8.066  34.382  29.193  0.00  0.00    +0.274 HD
ENDBRANCH   8   9
TORSDOF 1
