REMARK  Name = G6_out.pdbqt
REMARK  3 active torsions:
REMARK  status: ('A' for Active; 'I' for Inactive)
REMARK    1  A    between atoms: C4_1  and  C1_2
REMARK    2  A    between atoms: C4_1  and  C5_5
REMARK    3  A    between atoms: C5_5  and  C6_6
REMARK                            x       y       z     vdW  Elec       q    Type
REMARK                         _______ _______ _______ _____ _____    ______ ____
ROOT
ATOM      1  C4  OA- d   1      -1.249   0.902  -2.174  0.00  0.00    +0.113 C 
ENDROOT
BRANCH   1   2
ATOM      2  C1  OA- d   1      -0.741   1.592  -3.443  0.00  0.00    +0.172 C 
ATOM      3  O1  OA- d   1       0.456   1.994  -3.415  0.00  0.00    -0.648 OA
ATOM      4  O2  OA- d   1      -1.600   1.691  -4.366  0.00  0.00    -0.648 OA
ENDBRANCH   1   2
BRANCH   1   5
ATOM      5  C5  OA- d   1      -0.747  -0.524  -1.953  0.00  0.00    +0.014 C 
BRANCH   5   6
ATOM      6  C6  OA- d   1       0.201  -0.696  -0.750  0.00  0.00    -0.022 C 
ATOM      7  C2  OA- d   1      -0.215   0.157   0.449  0.00  0.00    +0.009 C 
ATOM      8  C3  OA- d   1       1.631  -0.339  -1.166  0.00  0.00    +0.009 C 
ENDBRANCH   5   6
ENDBRANCH   1   5
TORSDOF 3
