REMARK  Name = g6_out.pdbqt
REMARK  5 active torsions:
REMARK  status: ('A' for Active; 'I' for Inactive)
REMARK    1  A    between atoms: C8_1  and  C7_2
REMARK    2  A    between atoms: C8_1  and  C9_6
REMARK    3  A    between atoms: C7_2  and  C6_3
REMARK    4  A    between atoms: C6_3  and  C5_4
REMARK    5  A    between atoms: C9_6  and  N1_7
REMARK                            x       y       z     vdW  Elec       q    Type
REMARK                         _______ _______ _______ _____ _____    ______ ____
ROOT
ATOM      1  C8  UNL d   1      -1.338   1.158  -3.697  0.00  0.00    +0.028 C 
ENDROOT
BRANCH   1   2
ATOM      2  C7  UNL d   1      -1.415   0.754  -2.225  0.00  0.00    +0.002 C 
BRANCH   2   3
ATOM      3  C6  UNL d   1      -0.851  -0.651  -2.004  0.00  0.00    -0.000 C 
BRANCH   3   4
ATOM      4  C5  UNL d   1       0.317  -0.632  -1.017  0.00  0.00    -0.005 C 
ATOM      5  C1  UNL d   1      -0.066   0.051   0.286  0.00  0.00    +0.005 C 
ENDBRANCH   3   4
ENDBRANCH   2   3
ENDBRANCH   1   2
BRANCH   1   6
ATOM      6  C9  UNL d   1      -0.056   1.926  -3.987  0.00  0.00    +0.236 C 
BRANCH   6   7
ATOM      7  N1  UNL d   1       0.762   1.157  -4.955  0.00  0.00    -0.079 N 
ATOM      8  C2  UNL d   1       1.354   2.083  -6.027  0.00  0.00    +0.271 C 
ATOM      9  C3  UNL d   1       1.923   0.446  -4.246  0.00  0.00    +0.271 C 
ATOM     10  C4  UNL d   1      -0.088   0.091  -5.662  0.00  0.00    +0.271 C 
ENDBRANCH   6   7
ENDBRANCH   1   6
TORSDOF 5
