REMARK  Name = G3_out.pdbqt
REMARK  1 active torsions:
REMARK  status: ('A' for Active; 'I' for Inactive)
REMARK    1  A    between atoms: C7_7  and  N1_8
REMARK                            x       y       z     vdW  Elec       q    Type
REMARK                         _______ _______ _______ _____ _____    ______ ____
ROOT
ATOM      1  C1  UNL d   1       1.629   1.431   0.849  0.00  0.00    +0.005 C 
ATOM      2  C2  UNL d   1       0.322   1.523   1.652  0.00  0.00    +0.007 C 
ATOM      3  C3  UNL d   1       0.850  -0.767   1.315  0.00  0.00    +0.011 C 
ATOM      4  C4  UNL d   1       0.482   0.042  -0.898  0.00  0.00    +0.037 C 
ATOM      5  C5  UNL d   1       1.549   0.031   0.215  0.00  0.00    -0.012 C 
ATOM      6  C6  UNL d   1      -0.358   0.173   1.359  0.00  0.00    +0.016 C 
ATOM      7  C7  UNL d   1      -0.828   0.189  -0.107  0.00  0.00    +0.188 C 
ENDROOT
BRANCH   7   8
ATOM      8  N1  UNL d   1      -1.714  -0.969  -0.381  0.00  0.00    -0.075 N 
ATOM      9  H12 UNL d   1      -1.423  -1.460  -1.234  0.00  0.00    +0.274 HD
ATOM     10  H13 UNL d   1      -2.686  -0.665  -0.507  0.00  0.00    +0.274 HD
ATOM     11  H14 UNL d   1      -1.691  -1.640   0.394  0.00  0.00    +0.274 HD
ENDBRANCH   7   8
TORSDOF 1
