REMARK  Name = G1_out.pdbqt
REMARK  4 active torsions:
REMARK  status: ('A' for Active; 'I' for Inactive)
REMARK    1  A    between atoms: C2_2  and  C3_3
REMARK    2  A    between atoms: C3_3  and  C4_4
REMARK    3  A    between atoms: C4_4  and  C5_5
REMARK    4  A    between atoms: C5_5  and  C6_6
REMARK                            x       y       z     vdW  Elec       q    Type
REMARK                         _______ _______ _______ _____ _____    ______ ____
ROOT
ATOM      1  C4  MOL d   1       1.787   0.212  -1.950  0.00  0.00    +0.022 C 
ENDROOT
BRANCH   1   2
ATOM      2  C3  MOL d   1       0.889   1.209  -1.185  0.00  0.00    +0.093 C 
BRANCH   2   4
ATOM      3  C1  MOL d   1      -0.080  -0.131   0.914  0.00  0.00    +0.012 C 
ATOM      4  C2  MOL d   1       0.352   0.466  -0.023  0.00  0.00    -0.117 C 
ENDBRANCH   2   4
ENDBRANCH   1   2
BRANCH   1   5
ATOM      5  C5  MOL d   1       0.868  -0.810  -2.655  0.00  0.00    +0.114 C 
BRANCH   5   6
ATOM      6  C6  MOL d   1      -0.140  -0.189  -3.609  0.00  0.00    +0.172 C 
ATOM      7  O1  MOL d   1      -1.346  -0.404  -3.366  0.00  0.00    -0.648 OA
ATOM      8  O2  MOL d   1       0.319   0.485  -4.553  0.00  0.00    -0.648 OA
ENDBRANCH   5   6
ENDBRANCH   1   5
TORSDOF 4
