REMARK  Name = G4_out.pdbqt
REMARK  1 active torsions:
REMARK  status: ('A' for Active; 'I' for Inactive)
REMARK    1  A    between atoms: C6_6  and  O3_22
REMARK                            x       y       z     vdW  Elec       q    Type
REMARK                         _______ _______ _______ _____ _____    ______ ____
ROOT
ATOM      1  C1  UNL d   1      11.435  39.249  27.626  0.00  0.00    +0.011 C 
ATOM      2  C2  UNL d   1      10.454  39.320  26.613  0.00  0.00    +0.040 C 
ATOM      3  C3  UNL d   1      11.057  39.111  28.962  0.00  0.00    -0.046 C 
ATOM      4  C4  UNL d   1       9.700  39.070  29.223  0.00  0.00    -0.003 C 
ATOM      5  C5  UNL d   1       8.738  39.067  28.234  0.00  0.00    +0.110 C 
ATOM      6  C6  UNL d   1       9.088  39.216  26.912  0.00  0.00    +0.099 C 
ATOM      7  C7  UNL d   1       7.739  36.827  30.027  0.00  0.00    +0.157 C 
ATOM      8  C8  UNL d   1      12.022  38.901  30.098  0.00  0.00    +0.072 C 
ATOM      9  C9  UNL d   1       8.550  36.094  31.070  0.00  0.00    +0.081 C 
ATOM     10  C10 UNL d   1       9.972  36.641  31.120  0.00  0.00    +0.015 C 
ATOM     11  C11 UNL d   1       8.887  40.377  31.166  0.00  0.00    +0.045 C 
ATOM     12  C12 UNL d   1      10.213  41.088  31.446  0.00  0.00    +0.236 C 
ATOM     13  C13 UNL d   1       7.733  38.356  30.091  0.00  0.00    +0.212 C 
ATOM     14  C14 UNL d   1       9.953  38.128  31.496  0.00  0.00    +0.033 C 
ATOM     15  C15 UNL d   1      11.358  38.786  31.505  0.00  0.00    +0.197 C 
ATOM     16  C16 UNL d   1       9.065  38.964  30.564  0.00  0.00    +0.031 C 
ATOM     17  C17 UNL d   1      12.465  40.857  32.510  0.00  0.00    +0.270 C 
ATOM     18  N1  UNL d   1      11.173  40.167  32.161  0.00  0.00    -0.070 N 
ATOM     19  O1  UNL d   1       7.060  36.211  29.205  0.00  0.00    -0.295 OA
ATOM     20  O2  UNL d   1       7.478  38.849  28.740  0.00  0.00    -0.334 OA
ATOM     21  H19 UNL d   1      10.736  39.971  33.072  0.00  0.00    +0.279 HD
ENDROOT
BRANCH   6  22
ATOM     22  O3  UNL d   1       8.158  39.231  25.927  0.00  0.00    -0.358 OA
ATOM     23  H20 UNL d   1       8.570  39.056  25.064  0.00  0.00    +0.217 HD
ENDBRANCH   6  22
TORSDOF 1
