/inspire/ssd/ws-f4d69b29-e0a5-44e6-bd92-acf4de9990f0/public-project/hurenling-241310070200/LamNet/model/LamNet/data/rbfe/syk-nnp/CHEMBL3265026/CHEMBL3265026.pdb
 OpenBabel01062511123D

 30 34  0  0  0  0  0  0  0  0999 V2000
   44.3180   28.8810   47.0660 C   0  0  0  0  0  0  0  0  0  0  0  0
   44.7030   29.6260   48.2110 O   0  0  0  0  0  0  0  0  0  0  0  0
   46.0520   29.8680   48.3150 C   0  0  0  0  0  0  0  0  0  0  0  0
   46.8250   29.1070   49.1840 C   0  0  0  0  0  0  0  0  0  0  0  0
   48.1820   29.3590   49.3180 C   0  0  0  0  0  0  0  0  0  0  0  0
   48.8020   30.3770   48.5900 C   0  0  0  0  0  0  0  0  0  0  0  0
   50.1850   30.5960   48.8290 N   0  0  0  0  0  0  0  0  0  0  0  0
   51.1230   31.5020   48.2690 C   0  0  0  0  0  0  0  0  0  0  0  0
   50.7740   32.3260   47.2310 N   0  0  0  0  0  0  0  0  0  0  0  0
   51.7200   33.1770   46.7230 C   0  0  0  0  0  0  0  0  0  0  0  0
   53.0190   33.2150   47.2100 C   0  0  0  0  0  0  0  0  0  0  0  0
   53.3400   32.4220   48.2700 N   0  0  0  0  0  0  0  0  0  0  0  0
   54.4890   32.3090   48.9970 C   0  0  0  0  0  0  0  0  0  0  0  0
   54.1750   31.4070   50.0390 C   0  0  0  0  0  0  0  0  0  0  0  0
   52.9590   30.8980   49.8830 N   0  0  0  0  0  0  0  0  0  0  0  0
   52.4230   31.5490   48.8340 C   0  0  0  0  0  0  0  0  0  0  0  0
   51.2710   34.0900   45.6220 C   0  0  0  0  0  0  0  0  0  0  0  0
   52.1860   34.5670   44.6620 C   0  0  0  0  0  0  0  0  0  0  0  0
   51.7570   35.3930   43.6150 C   0  0  0  0  0  0  0  0  0  0  0  0
   50.4180   35.7540   43.5290 C   0  0  0  0  0  0  0  0  0  0  0  0
   50.0330   36.5710   42.4770 O   0  0  0  0  0  0  0  0  0  0  0  0
   48.6420   36.5360   42.1610 C   0  0  0  0  0  0  0  0  0  0  0  0
   47.8120   36.6920   43.4400 C   0  0  0  0  0  0  0  0  0  0  0  0
   48.1460   35.6610   44.4150 N   0  0  0  0  0  0  0  0  0  0  0  0
   49.5020   35.3000   44.4900 C   0  0  0  0  0  0  0  0  0  0  0  0
   49.9290   34.4860   45.5290 C   0  0  0  0  0  0  0  0  0  0  0  0
   48.0320   31.1460   47.6890 C   0  0  0  0  0  0  0  0  0  0  0  0
   46.6430   30.8840   47.5560 C   0  0  0  0  0  0  0  0  0  0  0  0
   45.8420   31.6220   46.6980 O   0  0  0  0  0  0  0  0  0  0  0  0
   46.3890   32.4710   45.7070 C   0  0  0  0  0  0  0  0  0  0  0  0
  1  2  1  0  0  0  0
  2  3  1  0  0  0  0
  3  4  2  0  0  0  0
  3 28  1  0  0  0  0
  4  5  1  0  0  0  0
  5  6  2  0  0  0  0
  6  7  1  0  0  0  0
  6 27  1  0  0  0  0
  7  8  1  0  0  0  0
  8  9  2  0  0  0  0
  8 16  1  0  0  0  0
  9 10  1  0  0  0  0
 10 11  2  0  0  0  0
 10 17  1  0  0  0  0
 11 12  1  0  0  0  0
 12 13  1  0  0  0  0
 12 16  1  0  0  0  0
 13 14  2  0  0  0  0
 14 15  1  0  0  0  0
 15 16  2  0  0  0  0
 17 18  2  0  0  0  0
 17 26  1  0  0  0  0
 18 19  1  0  0  0  0
 19 20  2  0  0  0  0
 20 21  1  0  0  0  0
 20 25  1  0  0  0  0
 21 22  1  0  0  0  0
 22 23  1  0  0  0  0
 23 24  1  0  0  0  0
 24 25  1  0  0  0  0
 25 26  2  0  0  0  0
 27 28  2  0  0  0  0
 28 29  1  0  0  0  0
 29 30  1  0  0  0  0
M  END
>  <COMPND>
    /Users/00mac/Documents/LamNet/model/LamNet/data/rbfe/syk-nnp/CHEMBL3265026/CHEMBL3265026.pdb 

>  <AUTHOR>
    GENERATED BY OPEN BABEL 3.1.0

>  <MASTER>
        0    0    0    0    0    0    0    0   30    0   30    0

$$$$
