REMARK  Name = G6_out.pdbqt
REMARK  2 active torsions:
REMARK  status: ('A' for Active; 'I' for Inactive)
REMARK    1  A    between atoms: C1_1  and  N1_7
REMARK    2  A    between atoms: C4_4  and  C7_10
REMARK                            x       y       z     vdW  Elec       q    Type
REMARK                         _______ _______ _______ _____ _____    ______ ____
ROOT
ATOM      1  C1  MOL d   1      -0.073   0.712  -1.798  0.00  0.00    +0.103 C 
ATOM      2  C2  MOL d   1       1.062   1.157  -2.478  0.00  0.00    +0.054 C 
ATOM      3  C3  MOL d   1      -1.360   0.836  -2.336  0.00  0.00    +0.036 C 
ATOM      4  C4  MOL d   1       0.922   1.747  -3.736  0.00  0.00    +0.043 C 
ATOM      5  C5  MOL d   1      -1.492   1.425  -3.590  0.00  0.00    +0.003 C 
ATOM      6  C6  MOL d   1      -0.360   1.874  -4.280  0.00  0.00    +0.018 C 
ENDROOT
BRANCH   1   7
ATOM      7  N1  MOL d   1       0.068   0.092  -0.479  0.00  0.00    -0.116 N 
ATOM      8  O1  MOL d   1       1.107  -0.521  -0.222  0.00  0.00    -0.532 OA
ATOM      9  O2  MOL d   1      -0.866   0.211   0.328  0.00  0.00    -0.532 OA
ENDBRANCH   1   7
BRANCH   4  10
ATOM     10  C7  MOL d   1       2.170   2.254  -4.521  0.00  0.00    +0.209 C 
ATOM     11  O3  MOL d   1       1.912   3.042  -5.460  0.00  0.00    -0.644 OA
ATOM     12  O4  MOL d   1       3.263   1.802  -4.104  0.00  0.00    -0.644 OA
ENDBRANCH   4  10
TORSDOF 2
