REMARK  Name = G6_out.pdbqt
REMARK  6 active torsions:
REMARK  status: ('A' for Active; 'I' for Inactive)
REMARK    1  A    between atoms: N1_15  and  C13_21
REMARK    2  A    between atoms: N3_20  and  C19_27
REMARK    3  A    between atoms: C13_21  and  C14_22
REMARK    4  A    between atoms: C14_22  and  N2_23
REMARK    5  A    between atoms: C19_27  and  C20_28
REMARK    6  A    between atoms: C20_28  and  N4_29
REMARK                            x       y       z     vdW  Elec       q    Type
REMARK                         _______ _______ _______ _____ _____    ______ ____
ROOT
ATOM      1  C1  MOL d   1       0.064   0.979  -0.159  0.00  0.00    +0.019 C 
ATOM      2  C2  MOL d   1      -0.122   1.825  -1.214  0.00  0.00    +0.044 C 
ATOM      3  C3  MOL d   1      -0.133   1.334  -2.539  0.00  0.00    +0.008 C 
ATOM      4  C4  MOL d   1       0.061  -0.034  -2.764  0.00  0.00    +0.008 C 
ATOM      5  C5  MOL d   1       0.248  -0.894  -1.658  0.00  0.00    +0.044 C 
ATOM      6  C6  MOL d   1       0.247  -0.402  -0.383  0.00  0.00    +0.019 C 
ATOM      7  C7  MOL d   1      -0.322   2.194  -3.645  0.00  0.00    +0.044 C 
ATOM      8  C8  MOL d   1       0.063  -0.524  -4.090  0.00  0.00    +0.044 C 
ATOM      9  C9  MOL d   1      -0.123   0.322  -5.145  0.00  0.00    +0.019 C 
ATOM     10  C10 MOL d   1      -0.318   1.703  -4.920  0.00  0.00    +0.019 C 
ATOM     11  C11 MOL d   1       0.473  -2.344  -1.885  0.00  0.00    +0.261 C 
ATOM     12  C12 MOL d   1       0.293  -1.973  -4.326  0.00  0.00    +0.261 C 
ATOM     13  O1  MOL d   1       0.601  -3.124  -0.987  0.00  0.00    -0.267 OA
ATOM     14  O2  MOL d   1       0.290  -2.470  -5.407  0.00  0.00    -0.267 OA
ATOM     15  N1  MOL d   1       0.539  -2.770  -3.207  0.00  0.00    -0.278 N 
ATOM     16  C17 MOL d   1      -0.308   3.278  -0.969  0.00  0.00    +0.261 C 
ATOM     17  C18 MOL d   1      -0.524   3.648  -3.413  0.00  0.00    +0.261 C 
ATOM     18  O3  MOL d   1      -0.251   3.767   0.117  0.00  0.00    -0.267 OA
ATOM     19  O4  MOL d   1      -0.648   4.441  -4.296  0.00  0.00    -0.267 OA
ATOM     20  N3  MOL d   1      -0.556   4.074  -2.086  0.00  0.00    -0.278 N 
ENDROOT
BRANCH  15  21
ATOM     21  C13 MOL d   1       0.986  -4.134  -3.480  0.00  0.00    +0.163 C 
BRANCH  21  22
ATOM     22  C14 MOL d   1      -0.104  -5.204  -3.280  0.00  0.00    +0.254 C 
BRANCH  22  23
ATOM     23  N2  MOL d   1      -0.007  -5.973  -1.978  0.00  0.00    -0.077 N 
ATOM     24  C15 MOL d   1      -1.330  -6.263  -1.342  0.00  0.00    +0.269 C 
ATOM     25  C16 MOL d   1       0.848  -7.201  -2.067  0.00  0.00    +0.269 C 
ATOM     26  H9  MOL d   1       0.470  -5.345  -1.348  0.00  0.00    +0.279 HD
ENDBRANCH  22  23
ENDBRANCH  21  22
ENDBRANCH  15  21
BRANCH  20  27
ATOM     27  C19 MOL d   1      -0.863   5.476  -1.845  0.00  0.00    +0.163 C 
BRANCH  27  28
ATOM     28  C20 MOL d   1      -2.371   5.671  -1.641  0.00  0.00    +0.254 C 
BRANCH  28  29
ATOM     29  N4  MOL d   1      -2.930   6.676  -2.613  0.00  0.00    -0.077 N 
ATOM     30  C21 MOL d   1      -1.862   7.519  -3.245  0.00  0.00    +0.269 C 
ATOM     31  C22 MOL d   1      -3.780   6.021  -3.655  0.00  0.00    +0.269 C 
ATOM     32  H20 MOL d   1      -3.536   7.297  -2.094  0.00  0.00    +0.279 HD
ENDBRANCH  28  29
ENDBRANCH  27  28
ENDBRANCH  20  27
TORSDOF 6
