REMARK  Name = g7_out.pdbqt
REMARK  1 active torsions:
REMARK  status: ('A' for Active; 'I' for Inactive)
REMARK    1  A    between atoms: C6_6  and  N1_8
REMARK                            x       y       z     vdW  Elec       q    Type
REMARK                         _______ _______ _______ _____ _____    ______ ____
ROOT
ATOM      1  C1  UNL d   1      -0.513  -1.587   1.302  0.00  0.00    +0.006 C 
ATOM      2  C2  UNL d   1       0.716  -1.509  -0.909  0.00  0.00    +0.006 C 
ATOM      3  C3  UNL d   1      -0.011  -3.013   1.530  0.00  0.00    +0.034 C 
ATOM      4  C4  UNL d   1       1.218  -2.933  -0.681  0.00  0.00    +0.034 C 
ATOM      5  C5  UNL d   1       0.450  -0.782   0.418  0.00  0.00    -0.019 C 
ATOM      6  C6  UNL d   1       0.251  -3.719   0.202  0.00  0.00    +0.189 C 
ATOM      7  C7  UNL d   1      -0.099   0.621   0.163  0.00  0.00    +0.010 C 
ENDROOT
BRANCH   6   8
ATOM      8  N1  UNL d   1       0.833  -5.059   0.477  0.00  0.00    -0.074 N 
ATOM      9  C8  UNL d   1       0.981  -5.287   1.987  0.00  0.00    +0.272 C 
ATOM     10  C9  UNL d   1       2.221  -5.189  -0.166  0.00  0.00    +0.272 C 
ATOM     11  C10 UNL d   1      -0.064  -6.167  -0.090  0.00  0.00    +0.272 C 
ENDBRANCH   6   8
TORSDOF 1
