REMARK  Name = 2_out.pdbqt
REMARK  1 active torsions:
REMARK  status: ('A' for Active; 'I' for Inactive)
REMARK    1  A    between atoms: C5_5  and  C7_8
REMARK                            x       y       z     vdW  Elec       q    Type
REMARK                         _______ _______ _______ _____ _____    ______ ____
ROOT
ATOM      1  C1  <0> d   1       1.062  -8.281   6.316  0.00  0.00    +0.019 C 
ATOM      2  C2  <0> d   1      -0.472 -10.096   5.889  0.00  0.00    +0.019 C 
ATOM      3  C3  <0> d   1       0.300  -7.445   5.501  0.00  0.00    +0.008 C 
ATOM      4  C4  <0> d   1      -1.235  -9.261   5.074  0.00  0.00    +0.008 C 
ATOM      5  C5  <0> d   1       0.676  -9.607   6.511  0.00  0.00    +0.040 C 
ATOM      6  C6  <0> d   1      -0.848  -7.934   4.880  0.00  0.00    -0.062 C 
ATOM      7  C8  <0> d   1      -1.664  -7.038   4.011  0.00  0.00    +0.048 C 
ENDROOT
BRANCH   5   8
ATOM      8  C7  <0> d   1       1.481 -10.489   7.370  0.00  0.00    +0.209 C 
ATOM      9  O1  <0> d   1       2.560 -10.024   7.899  0.00  0.00    -0.644 OA
ATOM     10  O2  <0> d   1       1.081 -11.697   7.568  0.00  0.00    -0.644 OA
ENDBRANCH   5   8
TORSDOF 1
