REMARK  Name = G4_out.pdbqt
REMARK  1 active torsions:
REMARK  status: ('A' for Active; 'I' for Inactive)
REMARK    1  A    between atoms: C6_6  and  C11_12
REMARK                            x       y       z     vdW  Elec       q    Type
REMARK                         _______ _______ _______ _____ _____    ______ ____
ROOT
ATOM      1  C1  MOL d   1       1.916   2.172  -2.633  0.00  0.00    +0.010 C 
ATOM      2  C2  MOL d   1       2.336   1.017  -3.566  0.00  0.00    -0.013 C 
ATOM      3  C3  MOL d   1       0.657   1.761  -1.825  0.00  0.00    +0.002 C 
ATOM      4  C4  MOL d   1      -0.487   1.421  -2.803  0.00  0.00    +0.026 C 
ATOM      5  C5  MOL d   1       1.179   0.691  -4.536  0.00  0.00    +0.025 C 
ATOM      6  C6  MOL d   1      -0.082   0.274  -3.757  0.00  0.00    +0.049 C 
ATOM      7  C7  MOL d   1       0.250  -0.956  -2.883  0.00  0.00    +0.026 C 
ATOM      8  C8  MOL d   1       2.659  -0.226  -2.713  0.00  0.00    +0.010 C 
ATOM      9  C9  MOL d   1       1.059   0.536  -0.998  0.00  0.00    +0.066 C 
ATOM     10  C10 MOL d   1       1.403  -0.650  -1.906  0.00  0.00    +0.002 C 
ATOM     11 Br1  MOL d   1      -0.389   0.043   0.323  0.00  0.00    -0.090 Br
ENDROOT
BRANCH   6  12
ATOM     12  C11 MOL d   1      -1.302  -0.068  -4.712  0.00  0.00    +0.181 C 
ATOM     13  O1  MOL d   1      -2.272   0.724  -4.607  0.00  0.00    -0.647 OA
ATOM     14  O2  MOL d   1      -1.157  -1.073  -5.450  0.00  0.00    -0.647 OA
ENDBRANCH   6  12
TORSDOF 1
