/inspire/ssd/ws-f4d69b29-e0a5-44e6-bd92-acf4de9990f0/public-project/hurenling-241310070200/LamNet/model/LamNet/data/rbfe/syk-nnp/CHEMBL3265015/CHEMBL3265015.pdb
 OpenBabel01062511123D

 30 33  0  0  0  0  0  0  0  0999 V2000
   44.3250   28.6450   47.3380 C   0  0  0  0  0  0  0  0  0  0  0  0
   44.7280   29.3600   48.4940 O   0  0  0  0  0  0  0  0  0  0  0  0
   46.0710   29.6360   48.5410 C   0  0  0  0  0  0  0  0  0  0  0  0
   46.8960   28.9160   49.3950 C   0  0  0  0  0  0  0  0  0  0  0  0
   48.2530   29.2110   49.4800 C   0  0  0  0  0  0  0  0  0  0  0  0
   48.8140   30.2260   48.7040 C   0  0  0  0  0  0  0  0  0  0  0  0
   50.2130   30.5070   48.8900 N   0  0  0  0  0  0  0  0  0  0  0  0
   51.1100   31.4480   48.2810 C   0  0  0  0  0  0  0  0  0  0  0  0
   50.7050   32.2480   47.2530 N   0  0  0  0  0  0  0  0  0  0  0  0
   51.5820   33.1620   46.7160 C   0  0  0  0  0  0  0  0  0  0  0  0
   52.8950   33.2450   47.1470 C   0  0  0  0  0  0  0  0  0  0  0  0
   53.2880   32.4630   48.1920 N   0  0  0  0  0  0  0  0  0  0  0  0
   54.4710   32.3980   48.8720 C   0  0  0  0  0  0  0  0  0  0  0  0
   54.2420   31.4700   49.9140 C   0  0  0  0  0  0  0  0  0  0  0  0
   53.0360   30.9190   49.8190 N   0  0  0  0  0  0  0  0  0  0  0  0
   52.4310   31.5490   48.7960 C   0  0  0  0  0  0  0  0  0  0  0  0
   51.0500   34.0940   45.6220 C   0  0  0  0  0  0  0  0  0  0  0  0
   49.6900   34.4920   45.6310 C   0  0  0  0  0  0  0  0  0  0  0  0
   49.2040   35.3650   44.6500 C   0  0  0  0  0  0  0  0  0  0  0  0
   50.0580   35.8660   43.6640 C   0  0  0  0  0  0  0  0  0  0  0  0
   51.3770   35.4650   43.6360 C   0  0  0  0  0  0  0  0  0  0  0  0
   51.8660   34.5730   44.5580 C   0  0  0  0  0  0  0  0  0  0  0  0
   53.2620   34.1200   44.3730 C   0  0  0  0  0  0  0  0  0  0  0  0
   49.5710   36.8030   42.6080 C   0  0  0  0  0  0  0  0  0  0  0  0
   48.3800   36.9490   42.4190 O   0  0  0  0  0  0  0  0  0  0  0  0
   50.5080   37.4450   41.8980 N   0  0  0  0  0  0  0  0  0  0  0  0
   47.9880   30.9200   47.8100 C   0  0  0  0  0  0  0  0  0  0  0  0
   46.6010   30.6360   47.7340 C   0  0  0  0  0  0  0  0  0  0  0  0
   45.7420   31.3220   46.8740 O   0  0  0  0  0  0  0  0  0  0  0  0
   46.1600   32.3760   46.0520 C   0  0  0  0  0  0  0  0  0  0  0  0
  1  2  1  0  0  0  0
  2  3  1  0  0  0  0
  3  4  2  0  0  0  0
  3 28  1  0  0  0  0
  4  5  1  0  0  0  0
  5  6  2  0  0  0  0
  6  7  1  0  0  0  0
  6 27  1  0  0  0  0
  7  8  1  0  0  0  0
  8  9  2  0  0  0  0
  8 16  1  0  0  0  0
  9 10  1  0  0  0  0
 10 11  2  0  0  0  0
 10 17  1  0  0  0  0
 11 12  1  0  0  0  0
 12 13  1  0  0  0  0
 12 16  1  0  0  0  0
 13 14  2  0  0  0  0
 14 15  1  0  0  0  0
 15 16  2  0  0  0  0
 17 18  2  0  0  0  0
 17 22  1  0  0  0  0
 18 19  1  0  0  0  0
 19 20  2  0  0  0  0
 20 21  1  0  0  0  0
 20 24  1  0  0  0  0
 21 22  2  0  0  0  0
 22 23  1  0  0  0  0
 24 25  2  0  0  0  0
 24 26  1  0  0  0  0
 27 28  2  0  0  0  0
 28 29  1  0  0  0  0
 29 30  1  0  0  0  0
M  END
>  <COMPND>
    /Users/00mac/Documents/LamNet/model/LamNet/data/rbfe/syk-nnp/CHEMBL3265015/CHEMBL3265015.pdb 

>  <AUTHOR>
    GENERATED BY OPEN BABEL 3.1.0

>  <MASTER>
        0    0    0    0    0    0    0    0   30    0   30    0

$$$$
