REMARK  Name = PMT_out.pdbqt
REMARK  3 active torsions:
REMARK  status: ('A' for Active; 'I' for Inactive)
REMARK    1  A    between atoms: N1_13  and  C16_15
REMARK    2  A    between atoms: C16_15  and  C17_16
REMARK    3  A    between atoms: C17_16  and  N2_18
REMARK                            x       y       z     vdW  Elec       q    Type
REMARK                         _______ _______ _______ _____ _____    ______ ____
ROOT
ATOM      1  C1  UNL d   1      16.741   1.220   1.351  0.00  0.00    +0.002 C 
ATOM      2  C2  UNL d   1      11.319  -1.497  -2.779  0.00  0.00    +0.002 C 
ATOM      3  C3  UNL d   1      16.002   2.310   1.784  0.00  0.00    +0.002 C 
ATOM      4  C4  UNL d   1      10.430  -0.483  -2.458  0.00  0.00    +0.002 C 
ATOM      5  C5  UNL d   1      16.113   0.181   0.661  0.00  0.00    +0.031 C 
ATOM      6  C6  UNL d   1      12.521  -1.620  -2.076  0.00  0.00    +0.031 C 
ATOM      7  C7  UNL d   1      14.637   2.360   1.521  0.00  0.00    +0.021 C 
ATOM      8  C8  UNL d   1      10.747   0.412  -1.441  0.00  0.00    +0.021 C 
ATOM      9  C9  UNL d   1      14.728   0.193   0.388  0.00  0.00    +0.052 C 
ATOM     10  C10 UNL d   1      12.869  -0.739  -1.029  0.00  0.00    +0.052 C 
ATOM     11  C11 UNL d   1      14.001   1.319   0.823  0.00  0.00    +0.032 C 
ATOM     12  C12 UNL d   1      11.957   0.295  -0.734  0.00  0.00    +0.032 C 
ATOM     13  N1  UNL d   1      14.093  -0.856  -0.324  0.00  0.00    -0.343 N 
ATOM     14  S1  UNL d   1      12.245   1.481   0.564  0.00  0.00    -0.086 S 
ENDROOT
BRANCH  13  15
ATOM     15  C16 UNL d   1      14.793  -2.145  -0.394  0.00  0.00    +0.162 C 
BRANCH  15  16
ATOM     16  C17 UNL d   1      14.219  -3.162   0.590  0.00  0.00    +0.201 C 
ATOM     17  C13 UNL d   1      14.602  -2.901   2.040  0.00  0.00    +0.042 C 
BRANCH  16  18
ATOM     18  N2  UNL d   1      14.686  -4.527   0.217  0.00  0.00    -0.073 N 
ATOM     19  C14 UNL d   1      14.266  -5.572   1.218  0.00  0.00    +0.269 C 
ATOM     20  C15 UNL d   1      14.278  -4.912  -1.183  0.00  0.00    +0.269 C 
ATOM     21  H21 UNL d   1      15.718  -4.516   0.225  0.00  0.00    +0.279 HD
ENDBRANCH  16  18
ENDBRANCH  15  16
ENDBRANCH  13  15
TORSDOF 3
