REMARK  Name = G3_out.pdbqt
REMARK  2 active torsions:
REMARK  status: ('A' for Active; 'I' for Inactive)
REMARK    1  A    between atoms: C6_5  and  C7_6
REMARK    2  A    between atoms: C7_6  and  C1_7
REMARK                            x       y       z     vdW  Elec       q    Type
REMARK                         _______ _______ _______ _____ _____    ______ ____
ROOT
ATOM      1  C2  UNL d   1      -0.050  -0.227   0.758  0.00  0.00    +0.000 C 
ATOM      2  C3  UNL d   1       0.349  -0.537  -0.686  0.00  0.00    +0.000 C 
ATOM      3  C4  UNL d   1      -0.735  -1.482   1.288  0.00  0.00    +0.005 C 
ATOM      4  C5  UNL d   1      -0.099  -1.972  -0.948  0.00  0.00    +0.005 C 
ATOM      5  C6  UNL d   1      -1.246  -2.184   0.035  0.00  0.00    -0.005 C 
ENDROOT
BRANCH   5   6
ATOM      6  C7  UNL d   1      -1.577  -3.650   0.261  0.00  0.00    +0.117 C 
BRANCH   6   7
ATOM      7  C1  UNL d   1      -0.395  -4.614   0.133  0.00  0.00    +0.172 C 
ATOM      8  O1  UNL d   1       0.369  -4.709   1.132  0.00  0.00    -0.648 OA
ATOM      9  O2  UNL d   1      -0.334  -5.206  -0.983  0.00  0.00    -0.648 OA
ENDBRANCH   6   7
ENDBRANCH   5   6
TORSDOF 2
