REMARK  Name = g7_out.pdbqt
REMARK  2 active torsions:
REMARK  status: ('A' for Active; 'I' for Inactive)
REMARK    1  A    between atoms: C5_5  and  N1_7
REMARK    2  A    between atoms: C6_6  and  N2_11
REMARK                            x       y       z     vdW  Elec       q    Type
REMARK                         _______ _______ _______ _____ _____    ______ ____
ROOT
ATOM      1  C1  UNL d   1       4.641  25.317  25.737  0.00  0.00    +0.034 C 
ATOM      2  C2  UNL d   1       4.900  26.089  27.032  0.00  0.00    +0.034 C 
ATOM      3  C3  UNL d   1       5.157  27.403  24.389  0.00  0.00    +0.034 C 
ATOM      4  C4  UNL d   1       5.416  28.175  25.683  0.00  0.00    +0.034 C 
ATOM      5  C5  UNL d   1       4.174  26.257  24.627  0.00  0.00    +0.183 C 
ATOM      6  C6  UNL d   1       5.883  27.235  26.795  0.00  0.00    +0.183 C 
ENDROOT
BRANCH   5   7
ATOM      7  N1  UNL d   1       4.030  25.478  23.367  0.00  0.00    -0.075 N 
ATOM      8  H11 UNL d   1       4.020  24.473  23.560  0.00  0.00    +0.274 HD
ATOM      9  H12 UNL d   1       4.808  25.673  22.730  0.00  0.00    +0.274 HD
ATOM     10  H13 UNL d   1       3.157  25.720  22.889  0.00  0.00    +0.274 HD
ENDBRANCH   5   7
BRANCH   6  11
ATOM     11  N2  UNL d   1       6.026  28.013  28.054  0.00  0.00    -0.075 N 
ATOM     12  H14 UNL d   1       6.799  28.683  27.981  0.00  0.00    +0.274 HD
ATOM     13  H15 UNL d   1       6.216  27.391  28.845  0.00  0.00    +0.274 HD
ATOM     14  H16 UNL d   1       5.169  28.536  28.258  0.00  0.00    +0.274 HD
ENDBRANCH   6  11
TORSDOF 2
