REMARK  Name = G5_out.pdbqt
REMARK  1 active torsions:
REMARK  status: ('A' for Active; 'I' for Inactive)
REMARK    1  A    between atoms: C5_5  and  N1_11
REMARK                            x       y       z     vdW  Elec       q    Type
REMARK                         _______ _______ _______ _____ _____    ______ ____
ROOT
ATOM      1  C1  CB8 d   1       7.410  39.218  29.804  0.00  0.00    +0.006 C 
ATOM      2  C2  CB8 d   1       8.815  39.828  29.951  0.00  0.00    +0.012 C 
ATOM      3  C3  CB8 d   1       8.095  37.211  31.086  0.00  0.00    +0.039 C 
ATOM      4  C4  CB8 d   1       7.702  37.707  29.672  0.00  0.00    -0.004 C 
ATOM      5  C5  CB8 d   1       9.522  37.761  31.245  0.00  0.00    +0.192 C 
ATOM      6  C6  CB8 d   1       9.739  38.578  29.937  0.00  0.00    -0.009 C 
ATOM      7  C7  CB8 d   1       9.037  37.664  28.879  0.00  0.00    -0.035 C 
ATOM      8  C8  CB8 d   1      11.192  38.927  29.672  0.00  0.00    +0.018 C 
ATOM      9  C9  CB8 d   1       9.628  36.249  28.719  0.00  0.00    +0.016 C 
ATOM     10  C10 CB8 d   1       8.939  38.242  27.452  0.00  0.00    +0.016 C 
ENDROOT
BRANCH   5  11
ATOM     11  N1  CB8 d   1       9.647  38.564  32.479  0.00  0.00    -0.074 N 
ATOM     12  H18 CB8 d   1       8.754  38.610  32.986  0.00  0.00    +0.274 HD
ATOM     13  H19 CB8 d   1       9.935  39.528  32.268  0.00  0.00    +0.274 HD
ATOM     14  H20 CB8 d   1      10.346  38.163  33.115  0.00  0.00    +0.274 HD
ENDBRANCH   5  11
TORSDOF 1
