REMARK  Name = G8_out.pdbqt
REMARK  6 active torsions:
REMARK  status: ('A' for Active; 'I' for Inactive)
REMARK    1  A    between atoms: N1_3  and  C9_4
REMARK    2  A    between atoms: N1_3  and  C11_11
REMARK    3  A    between atoms: C9_4  and  C6_5
REMARK    4  A    between atoms: C11_11  and  C10_12
REMARK    5  A    between atoms: C10_12  and  C12_13
REMARK    6  A    between atoms: C12_13  and  S1_14
REMARK                            x       y       z     vdW  Elec       q    Type
REMARK                         _______ _______ _______ _____ _____    ______ ____
ROOT
ATOM      1  C7  UNL d   1      -1.305   0.782   0.915  0.00  0.00    +0.272 C 
ATOM      2  C8  UNL d   1       0.666   2.293   0.990  0.00  0.00    +0.272 C 
ATOM      3  N1  UNL d   1       0.175   0.910   0.587  0.00  0.00    -0.071 N 
ENDROOT
BRANCH   3   4
ATOM      4  C9  UNL d   1       0.382   0.713  -0.908  0.00  0.00    +0.275 C 
BRANCH   4   5
ATOM      5  C6  UNL d   1       0.421  -0.731  -1.310  0.00  0.00    -0.032 C 
ATOM      6  C4  UNL d   1      -0.752  -1.382  -1.696  0.00  0.00    +0.009 C 
ATOM      7  C2  UNL d   1      -0.714  -2.725  -2.071  0.00  0.00    +0.001 C 
ATOM      8  C1  UNL d   1       0.496  -3.418  -2.060  0.00  0.00    +0.000 C 
ATOM      9  C3  UNL d   1       1.669  -2.769  -1.673  0.00  0.00    +0.001 C 
ATOM     10  C5  UNL d   1       1.632  -1.426  -1.299  0.00  0.00    +0.009 C 
ENDBRANCH   4   5
ENDBRANCH   3   4
BRANCH   3  11
ATOM     11  C11 UNL d   1       0.957  -0.149   1.350  0.00  0.00    +0.237 C 
BRANCH  11  12
ATOM     12  C10 UNL d   1       0.013  -1.163   1.984  0.00  0.00    +0.045 C 
BRANCH  12  13
ATOM     13  C12 UNL d   1       0.565  -2.581   1.986  0.00  0.00    +0.167 C 
BRANCH  13  14
ATOM     14  S1  UNL d   1      -0.735  -3.773   1.893  0.00  0.00    +0.101 S 
ATOM     15  O1  UNL d   1      -0.214  -4.762   0.951  0.00  0.00    -0.595 OA
ATOM     16  O2  UNL d   1      -0.858  -4.240   3.273  0.00  0.00    -0.595 OA
ATOM     17  O3  UNL d   1      -1.869  -2.991   1.404  0.00  0.00    -0.595 OA
ENDBRANCH  13  14
ENDBRANCH  12  13
ENDBRANCH  11  12
ENDBRANCH   3  11
TORSDOF 6
