REMARK  Name = g2_out.pdbqt
REMARK  1 active torsions:
REMARK  status: ('A' for Active; 'I' for Inactive)
REMARK    1  A    between atoms: C5_5  and  C7_8
REMARK                            x       y       z     vdW  Elec       q    Type
REMARK                         _______ _______ _______ _____ _____    ______ ____
ROOT
ATOM      1  C1  UNL d   1       1.010  -2.871  -1.518  0.00  0.00    +0.020 C 
ATOM      2  C2  UNL d   1       1.651  -3.019   0.806  0.00  0.00    +0.020 C 
ATOM      3  C3  UNL d   1       0.498  -1.593  -1.295  0.00  0.00    +0.025 C 
ATOM      4  C4  UNL d   1       1.138  -1.741   1.030  0.00  0.00    +0.025 C 
ATOM      5  C5  UNL d   1       1.587  -3.584  -0.467  0.00  0.00    +0.040 C 
ATOM      6  C6  UNL d   1       0.562  -1.028  -0.022  0.00  0.00    +0.034 C 
ATOM      7 Cl1  UNL d   1      -0.070   0.549   0.251  0.00  0.00    -0.084 Cl
ENDROOT
BRANCH   5   8
ATOM      8  C7  UNL d   1       2.128  -4.932  -0.703  0.00  0.00    +0.209 C 
ATOM      9  O1  UNL d   1       2.666  -5.565   0.281  0.00  0.00    -0.644 OA
ATOM     10  O2  UNL d   1       2.047  -5.435  -1.885  0.00  0.00    -0.644 OA
ENDBRANCH   5   8
TORSDOF 1
