REMARK  Name = CPZ_out.pdbqt
REMARK  4 active torsions:
REMARK  status: ('A' for Active; 'I' for Inactive)
REMARK    1  A    between atoms: N1_13  and  C16_16
REMARK    2  A    between atoms: C16_16  and  C15_17
REMARK    3  A    between atoms: C15_17  and  C17_18
REMARK    4  A    between atoms: C17_18  and  N2_19
REMARK                            x       y       z     vdW  Elec       q    Type
REMARK                         _______ _______ _______ _____ _____    ______ ____
ROOT
ATOM      1  C1  UNL d   1      16.562   0.899   1.662  0.00  0.00    +0.002 C 
ATOM      2  C2  UNL d   1      15.825   2.022   2.008  0.00  0.00    +0.002 C 
ATOM      3  C3  UNL d   1      15.962  -0.132   0.934  0.00  0.00    +0.031 C 
ATOM      4  C4  UNL d   1      14.493   2.114   1.620  0.00  0.00    +0.021 C 
ATOM      5  C5  UNL d   1      10.821   0.242  -1.654  0.00  0.00    +0.023 C 
ATOM      6  C6  UNL d   1      10.565  -0.660  -2.682  0.00  0.00    +0.025 C 
ATOM      7  C7  UNL d   1      12.571  -1.861  -2.091  0.00  0.00    +0.054 C 
ATOM      8  C8  UNL d   1      14.609  -0.077   0.535  0.00  0.00    +0.052 C 
ATOM      9  C9  UNL d   1      12.854  -0.972  -1.031  0.00  0.00    +0.053 C 
ATOM     10  C10 UNL d   1      13.886   1.081   0.884  0.00  0.00    +0.032 C 
ATOM     11  C11 UNL d   1      11.957   0.098  -0.837  0.00  0.00    +0.032 C 
ATOM     12  C12 UNL d   1      11.443  -1.711  -2.903  0.00  0.00    +0.036 C 
ATOM     13  N1  UNL d   1      14.004  -1.117  -0.215  0.00  0.00    -0.345 N 
ATOM     14  S1  UNL d   1      12.168   1.299   0.462  0.00  0.00    -0.086 S 
ATOM     15 Cl1  UNL d   1      11.148  -2.822  -4.183  0.00  0.00    -0.084 Cl
ENDROOT
BRANCH  13  16
ATOM     16  C16 UNL d   1      14.661  -2.430  -0.200  0.00  0.00    +0.131 C 
BRANCH  16  17
ATOM     17  C15 UNL d   1      14.013  -3.354   0.828  0.00  0.00    +0.048 C 
BRANCH  17  18
ATOM     18  C17 UNL d   1      14.698  -3.279   2.186  0.00  0.00    +0.235 C 
BRANCH  18  19
ATOM     19  N2  UNL d   1      13.664  -3.157   3.244  0.00  0.00    -0.079 N 
ATOM     20  C13 UNL d   1      12.580  -2.170   2.886  0.00  0.00    +0.269 C 
ATOM     21  C14 UNL d   1      13.079  -4.491   3.640  0.00  0.00    +0.269 C 
ATOM     22  H20 UNL d   1      14.123  -2.783   4.093  0.00  0.00    +0.278 HD
ENDBRANCH  18  19
ENDBRANCH  17  18
ENDBRANCH  16  17
ENDBRANCH  13  16
TORSDOF 4
