REMARK  Name = g5_out.pdbqt
REMARK  9 active torsions:
REMARK  status: ('A' for Active; 'I' for Inactive)
REMARK    1  A    between atoms: C1_1  and  C2_2
REMARK    2  A    between atoms: C1_1  and  C3_10
REMARK    3  A    between atoms: C2_2  and  C4_3
REMARK    4  A    between atoms: C4_3  and  C6_4
REMARK    5  A    between atoms: C6_4  and  C8_5
REMARK    6  A    between atoms: C8_5  and  N2_6
REMARK    7  A    between atoms: C3_10  and  C5_11
REMARK    8  A    between atoms: C5_11  and  C7_12
REMARK    9  A    between atoms: C7_12  and  N1_13
REMARK                            x       y       z     vdW  Elec       q    Type
REMARK                         _______ _______ _______ _____ _____    ______ ____
ROOT
ATOM      1  C1  UNL d   1      -0.144  25.005  22.579  0.00  0.00    +0.000 C 
ENDROOT
BRANCH   1   2
ATOM      2  C2  UNL d   1       0.892  25.826  23.352  0.00  0.00    +0.000 C 
BRANCH   2   3
ATOM      3  C4  UNL d   1       2.319  25.416  22.979  0.00  0.00    +0.002 C 
BRANCH   3   4
ATOM      4  C6  UNL d   1       3.313  25.810  24.074  0.00  0.00    +0.027 C 
BRANCH   4   5
ATOM      5  C8  UNL d   1       4.770  25.660  23.653  0.00  0.00    +0.229 C 
BRANCH   5   6
ATOM      6  N2  UNL d   1       4.960  26.113  22.256  0.00  0.00    -0.079 N 
ATOM      7  H20 UNL d   1       5.776  25.661  21.829  0.00  0.00    +0.274 HD
ATOM      8  H21 UNL d   1       5.107  27.128  22.214  0.00  0.00    +0.274 HD
ATOM      9  H22 UNL d   1       4.139  25.890  21.681  0.00  0.00    +0.274 HD
ENDBRANCH   5   6
ENDBRANCH   4   5
ENDBRANCH   3   4
ENDBRANCH   2   3
ENDBRANCH   1   2
BRANCH   1  10
ATOM     10  C3  UNL d   1      -1.569  25.408  22.964  0.00  0.00    +0.002 C 
BRANCH  10  11
ATOM     11  C5  UNL d   1      -2.626  24.393  22.520  0.00  0.00    +0.027 C 
BRANCH  11  12
ATOM     12  C7  UNL d   1      -4.025  24.988  22.439  0.00  0.00    +0.229 C 
BRANCH  12  13
ATOM     13  N1  UNL d   1      -4.188  25.658  21.124  0.00  0.00    -0.079 N 
ATOM     14  H17 UNL d   1      -3.363  26.222  20.895  0.00  0.00    +0.274 HD
ATOM     15  H18 UNL d   1      -5.005  26.278  21.128  0.00  0.00    +0.274 HD
ATOM     16  H19 UNL d   1      -4.317  24.969  20.375  0.00  0.00    +0.274 HD
ENDBRANCH  12  13
ENDBRANCH  11  12
ENDBRANCH  10  11
ENDBRANCH   1  10
TORSDOF 9
