REMARK  Name = G5_out.pdbqt
REMARK  3 active torsions:
REMARK  status: ('A' for Active; 'I' for Inactive)
REMARK    1  A    between atoms: C6_2  and  C3_3
REMARK    2  A    between atoms: C6_2  and  C5_6
REMARK    3  A    between atoms: C5_6  and  C2_7
REMARK                            x       y       z     vdW  Elec       q    Type
REMARK                         _______ _______ _______ _____ _____    ______ ____
ROOT
ATOM      1  C4  OA- d   1       1.716   2.065  -2.511  0.00  0.00    +0.021 C 
ATOM      2  C6  OA- d   1       0.579   1.286  -1.851  0.00  0.00    +0.086 C 
ENDROOT
BRANCH   2   3
ATOM      3  C3  OA- d   1      -0.606   1.404  -2.830  0.00  0.00    +0.176 C 
ATOM      4  O1  OA- d   1      -1.727   1.013  -2.398  0.00  0.00    -0.648 OA
ATOM      5  O2  OA- d   1      -0.306   1.879  -3.962  0.00  0.00    -0.648 OA
ENDBRANCH   2   3
BRANCH   2   6
ATOM      6  C5  OA- d   1       1.013  -0.152  -1.549  0.00  0.00    +0.041 C 
BRANCH   6   7
ATOM      7  C2  OA- d   1       0.530  -0.615  -0.204  0.00  0.00    -0.036 C 
ATOM      8  C1  OA- d   1      -0.218   0.126   0.620  0.00  0.00    +0.007 C 
ENDBRANCH   6   7
ENDBRANCH   2   6
TORSDOF 3
