REMARK  Name = g5_out.pdbqt
REMARK  3 active torsions:
REMARK  status: ('A' for Active; 'I' for Inactive)
REMARK    1  A    between atoms: C6_6  and  C10_7
REMARK    2  A    between atoms: C10_7  and  C11_8
REMARK    3  A    between atoms: C11_8  and  N1_9
REMARK                            x       y       z     vdW  Elec       q    Type
REMARK                         _______ _______ _______ _____ _____    ______ ____
ROOT
ATOM      1  C1  UNL d   1      -0.538  -0.401   0.590  0.00  0.00    +0.000 C 
ATOM      2  C2  UNL d   1       0.224  -0.511  -0.574  0.00  0.00    +0.001 C 
ATOM      3  C3  UNL d   1      -0.565  -1.454   1.506  0.00  0.00    +0.001 C 
ATOM      4  C4  UNL d   1       0.958  -1.670  -0.821  0.00  0.00    +0.007 C 
ATOM      5  C5  UNL d   1       0.169  -2.613   1.259  0.00  0.00    +0.007 C 
ATOM      6  C6  UNL d   1       0.931  -2.722   0.095  0.00  0.00    -0.057 C 
ENDROOT
BRANCH   6   7
ATOM      7  C10 UNL d   1       1.724  -3.977  -0.172  0.00  0.00    +0.066 C 
BRANCH   7   8
ATOM      8  C11 UNL d   1       1.647  -4.451  -1.619  0.00  0.00    +0.241 C 
BRANCH   8   9
ATOM      9  N1  UNL d   1       0.603  -5.548  -1.759  0.00  0.00    -0.073 N 
ATOM     10  C7  UNL d   1       1.011  -6.487  -2.834  0.00  0.00    +0.264 C 
ATOM     11  C8  UNL d   1      -0.738  -4.937  -2.128  0.00  0.00    +0.272 C 
ATOM     12  C9  UNL d   1       0.487  -6.321  -0.457  0.00  0.00    +0.272 C 
ENDBRANCH   8   9
ENDBRANCH   7   8
ENDBRANCH   6   7
TORSDOF 3
