/inspire/ssd/ws-f4d69b29-e0a5-44e6-bd92-acf4de9990f0/public-project/hurenling-241310070200/LamNet/model/LamNet/data/rbfe/syk-nnp/CHEMBL3265029/CHEMBL3265029.pdb
 OpenBabel01062511123D

 27 31  0  0  0  0  0  0  0  0999 V2000
   44.3270   28.8330   47.0740 C   0  0  0  0  0  0  0  0  0  0  0  0
   44.7100   29.6050   48.2010 O   0  0  0  0  0  0  0  0  0  0  0  0
   46.0600   29.8390   48.3180 C   0  0  0  0  0  0  0  0  0  0  0  0
   46.6610   30.8640   47.5740 C   0  0  0  0  0  0  0  0  0  0  0  0
   48.0290   31.1240   47.7180 C   0  0  0  0  0  0  0  0  0  0  0  0
   48.7970   30.3470   48.6050 C   0  0  0  0  0  0  0  0  0  0  0  0
   50.1850   30.5610   48.8350 N   0  0  0  0  0  0  0  0  0  0  0  0
   51.1100   31.4980   48.2880 C   0  0  0  0  0  0  0  0  0  0  0  0
   50.7440   32.3200   47.2590 N   0  0  0  0  0  0  0  0  0  0  0  0
   51.6770   33.1690   46.7350 C   0  0  0  0  0  0  0  0  0  0  0  0
   52.9870   33.2140   47.2140 C   0  0  0  0  0  0  0  0  0  0  0  0
   53.3230   32.4230   48.2690 N   0  0  0  0  0  0  0  0  0  0  0  0
   54.4730   32.3120   48.9910 C   0  0  0  0  0  0  0  0  0  0  0  0
   54.1730   31.4050   50.0190 C   0  0  0  0  0  0  0  0  0  0  0  0
   52.9640   30.8770   49.8650 N   0  0  0  0  0  0  0  0  0  0  0  0
   52.4120   31.5480   48.8420 C   0  0  0  0  0  0  0  0  0  0  0  0
   51.2040   34.0880   45.6300 C   0  0  0  0  0  0  0  0  0  0  0  0
   52.1220   34.5710   44.6750 C   0  0  0  0  0  0  0  0  0  0  0  0
   51.7260   35.3920   43.6220 C   0  0  0  0  0  0  0  0  0  0  0  0
   50.3820   35.7470   43.5260 C   0  0  0  0  0  0  0  0  0  0  0  0
   49.5720   36.5330   42.6300 C   0  0  0  0  0  0  0  0  0  0  0  0
   48.3360   36.5470   43.0260 N   0  0  0  0  0  0  0  0  0  0  0  0
   48.2440   35.8190   44.1350 N   0  0  0  0  0  0  0  0  0  0  0  0
   49.4610   35.2810   44.5020 C   0  0  0  0  0  0  0  0  0  0  0  0
   49.8420   34.4570   45.5580 C   0  0  0  0  0  0  0  0  0  0  0  0
   48.1810   29.3190   49.3250 C   0  0  0  0  0  0  0  0  0  0  0  0
   46.8270   29.0670   49.1870 C   0  0  0  0  0  0  0  0  0  0  0  0
  1  2  1  0  0  0  0
  2  3  1  0  0  0  0
  3  4  2  0  0  0  0
  3 27  1  0  0  0  0
  4  5  1  0  0  0  0
  5  6  2  0  0  0  0
  6  7  1  0  0  0  0
  6 26  1  0  0  0  0
  7  8  1  0  0  0  0
  8  9  2  0  0  0  0
  8 16  1  0  0  0  0
  9 10  1  0  0  0  0
 10 11  2  0  0  0  0
 10 17  1  0  0  0  0
 11 12  1  0  0  0  0
 12 13  1  0  0  0  0
 12 16  1  0  0  0  0
 13 14  2  0  0  0  0
 14 15  1  0  0  0  0
 15 16  2  0  0  0  0
 17 18  2  0  0  0  0
 17 25  1  0  0  0  0
 18 19  1  0  0  0  0
 19 20  2  0  0  0  0
 20 21  1  0  0  0  0
 20 24  1  0  0  0  0
 21 22  2  0  0  0  0
 22 23  1  0  0  0  0
 23 24  2  0  0  0  0
 24 25  1  0  0  0  0
 26 27  2  0  0  0  0
M  END
>  <COMPND>
    /Users/00mac/Documents/LamNet/model/LamNet/data/rbfe/syk-nnp/CHEMBL3265029/CHEMBL3265029.pdb 

>  <AUTHOR>
    GENERATED BY OPEN BABEL 3.1.0

>  <MASTER>
        0    0    0    0    0    0    0    0   27    0   27    0

$$$$
