REMARK  Name = g6_out.pdbqt
REMARK  1 active torsions:
REMARK  status: ('A' for Active; 'I' for Inactive)
REMARK    1  A    between atoms: C10_10  and  N1_11
REMARK                            x       y       z     vdW  Elec       q    Type
REMARK                         _______ _______ _______ _____ _____    ______ ____
ROOT
ATOM      1  C1  UNL d   1       6.152  25.594  29.149  0.00  0.00    +0.009 C 
ATOM      2  C2  UNL d   1       5.540  28.023  28.997  0.00  0.00    +0.009 C 
ATOM      3  C3  UNL d   1       3.740  26.276  29.022  0.00  0.00    +0.009 C 
ATOM      4  C4  UNL d   1       6.629  26.880  27.045  0.00  0.00    +0.044 C 
ATOM      5  C5  UNL d   1       4.823  25.128  27.069  0.00  0.00    +0.044 C 
ATOM      6  C6  UNL d   1       4.210  27.564  26.919  0.00  0.00    +0.044 C 
ATOM      7  C7  UNL d   1       6.576  26.962  28.583  0.00  0.00    -0.012 C 
ATOM      8  C8  UNL d   1       4.764  25.203  28.608  0.00  0.00    -0.012 C 
ATOM      9  C9  UNL d   1       4.150  27.648  28.456  0.00  0.00    -0.012 C 
ATOM     10  C10 UNL d   1       5.240  26.497  26.509  0.00  0.00    +0.129 C 
ENDROOT
BRANCH  10  11
ATOM     11  N1  UNL d   1       5.295  26.420  25.026  0.00  0.00    -0.070 N 
ATOM     12  C11 UNL d   1       3.952  25.946  24.456  0.00  0.00    +0.272 C 
ATOM     13  C12 UNL d   1       6.381  25.434  24.573  0.00  0.00    +0.272 C 
ATOM     14  C13 UNL d   1       5.615  27.793  24.421  0.00  0.00    +0.272 C 
ENDBRANCH  10  11
TORSDOF 1
