REMARK  Name = G5_out.pdbqt
REMARK  2 active torsions:
REMARK  status: ('A' for Active; 'I' for Inactive)
REMARK    1  A    between atoms: C1_1  and  N2_16
REMARK    2  A    between atoms: C11_11  and  N3_19
REMARK                            x       y       z     vdW  Elec       q    Type
REMARK                         _______ _______ _______ _____ _____    ______ ____
ROOT
ATOM      1  C1  MOL d   1       0.392  -3.323  -2.611  0.00  0.00    +0.031 C 
ATOM      2  C2  MOL d   1       0.353  -2.281  -1.685  0.00  0.00    +0.059 C 
ATOM      3  C3  MOL d   1       0.163  -0.975  -2.143  0.00  0.00    +0.045 C 
ATOM      4  C4  MOL d   1       0.009  -0.673  -3.526  0.00  0.00    -0.008 C 
ATOM      5  C5  MOL d   1       0.053  -1.758  -4.447  0.00  0.00    +0.016 C 
ATOM      6  C6  MOL d   1       0.237  -3.045  -4.008  0.00  0.00    +0.030 C 
ATOM      7  C7  MOL d   1      -0.177   0.649  -3.932  0.00  0.00    +0.027 C 
ATOM      8  C8  MOL d   1      -0.212   1.674  -2.984  0.00  0.00    -0.008 C 
ATOM      9  C9  MOL d   1      -0.054   1.363  -1.604  0.00  0.00    +0.045 C 
ATOM     10  C10 MOL d   1      -0.083   2.348  -0.613  0.00  0.00    +0.059 C 
ATOM     11  C11 MOL d   1      -0.270   3.676  -0.987  0.00  0.00    +0.031 C 
ATOM     12  C12 MOL d   1      -0.427   4.016  -2.365  0.00  0.00    +0.030 C 
ATOM     13  C13 MOL d   1      -0.399   3.042  -3.333  0.00  0.00    +0.016 C 
ATOM     14  N1  MOL d   1       0.126   0.052  -1.235  0.00  0.00    -0.355 N 
ATOM     15  H20 MOL d   1       0.235  -0.144  -0.227  0.00  0.00    +0.166 HD
ENDROOT
BRANCH   1  16
ATOM     16  N2  MOL d   1       0.582  -4.649  -2.188  0.00  0.00    -0.389 N 
ATOM     17  C14 MOL d   1       1.928  -5.245  -2.061  0.00  0.00    +0.149 C 
ATOM     18  C15 MOL d   1      -0.556  -5.518  -1.822  0.00  0.00    +0.149 C 
ENDBRANCH   1  16
BRANCH  11  19
ATOM     19  N3  MOL d   1      -0.306   4.682  -0.026  0.00  0.00    -0.389 N 
ATOM     20  C16 MOL d   1       0.929   5.289   0.505  0.00  0.00    +0.149 C 
ATOM     21  C17 MOL d   1      -1.580   5.209   0.494  0.00  0.00    +0.149 C 
ENDBRANCH  11  19
TORSDOF 2
