REMARK  Name = G5_out.pdbqt
REMARK  3 active torsions:
REMARK  status: ('A' for Active; 'I' for Inactive)
REMARK    1  A    between atoms: C4_4  and  C7_7
REMARK    2  A    between atoms: C7_7  and  C8_8
REMARK    3  A    between atoms: C8_8  and  N1_9
REMARK                            x       y       z     vdW  Elec       q    Type
REMARK                         _______ _______ _______ _____ _____    ______ ____
ROOT
ATOM      1  C1  MOL d   1      -0.430   0.172   0.174  0.00  0.00    +0.000 C 
ATOM      2  C2  MOL d   1      -1.287  -0.053  -0.917  0.00  0.00    +0.001 C 
ATOM      3  C3  MOL d   1      -0.757  -0.407  -2.169  0.00  0.00    +0.007 C 
ATOM      4  C4  MOL d   1       0.637  -0.549  -2.332  0.00  0.00    -0.057 C 
ATOM      5  C5  MOL d   1       1.495  -0.297  -1.242  0.00  0.00    +0.007 C 
ATOM      6  C6  MOL d   1       0.959   0.058   0.009  0.00  0.00    +0.001 C 
ENDROOT
BRANCH   4   7
ATOM      7  C7  MOL d   1       1.212  -0.966  -3.673  0.00  0.00    +0.066 C 
BRANCH   7   8
ATOM      8  C8  MOL d   1       1.291   0.263  -4.621  0.00  0.00    +0.240 C 
BRANCH   8   9
ATOM      9  N1  MOL d   1       1.356  -0.079  -6.100  0.00  0.00    -0.078 N 
ATOM     10  C9  MOL d   1       2.161   0.968  -6.774  0.00  0.00    +0.271 C 
ATOM     11  C10 MOL d   1      -0.006  -0.073  -6.709  0.00  0.00    +0.271 C 
ATOM     12  C11 MOL d   1       1.998  -1.397  -6.348  0.00  0.00    +0.271 C 
ENDBRANCH   8   9
ENDBRANCH   7   8
ENDBRANCH   4   7
TORSDOF 3
