REMARK  Name = G6_out.pdbqt
REMARK  2 active torsions:
REMARK  status: ('A' for Active; 'I' for Inactive)
REMARK    1  A    between atoms: C1_1  and  N1_7
REMARK    2  A    between atoms: C4_4  and  C7_10
REMARK                            x       y       z     vdW  Elec       q    Type
REMARK                         _______ _______ _______ _____ _____    ______ ____
ROOT
ATOM      1  C1  MOL d   1       0.151   0.978  -4.943  0.00  0.00    +0.103 C 
ATOM      2  C2  MOL d   1      -0.184   1.242  -3.613  0.00  0.00    +0.054 C 
ATOM      3  C3  MOL d   1       0.903  -0.143  -5.313  0.00  0.00    +0.036 C 
ATOM      4  C4  MOL d   1       0.240   0.365  -2.611  0.00  0.00    +0.043 C 
ATOM      5  C5  MOL d   1       1.322  -1.013  -4.309  0.00  0.00    +0.003 C 
ATOM      6  C6  MOL d   1       0.991  -0.757  -2.974  0.00  0.00    +0.018 C 
ENDROOT
BRANCH   1   7
ATOM      7  N1  MOL d   1      -0.291   1.894  -5.996  0.00  0.00    -0.116 N 
ATOM      8  O1  MOL d   1      -1.141   1.504  -6.800  0.00  0.00    -0.532 OA
ATOM      9  O2  MOL d   1       0.211   3.027  -6.036  0.00  0.00    -0.532 OA
ENDBRANCH   1   7
BRANCH   4  10
ATOM     10  C7  MOL d   1      -0.118   0.631  -1.117  0.00  0.00    +0.209 C 
ATOM     11  O3  MOL d   1      -1.300   0.360  -0.806  0.00  0.00    -0.644 OA
ATOM     12  O4  MOL d   1       0.830   1.082  -0.430  0.00  0.00    -0.644 OA
ENDBRANCH   4  10
TORSDOF 2
