REMARK  Name = G1_out.pdbqt
REMARK  2 active torsions:
REMARK  status: ('A' for Active; 'I' for Inactive)
REMARK    1  A    between atoms: C9_9  and  C11_11
REMARK    2  A    between atoms: C10_10  and  O3_14
REMARK                            x       y       z     vdW  Elec       q    Type
REMARK                         _______ _______ _______ _____ _____    ______ ____
ROOT
ATOM      1  C1  UNL d   1       0.596  -0.068  -0.281  0.00  0.00    +0.001 C 
ATOM      2  C2  UNL d   1      -0.527   0.015   0.537  0.00  0.00    +0.001 C 
ATOM      3  C3  UNL d   1       1.005  -1.305  -0.780  0.00  0.00    +0.012 C 
ATOM      4  C4  UNL d   1      -1.245  -1.137   0.858  0.00  0.00    +0.012 C 
ATOM      5  C5  UNL d   1       0.694  -3.728  -0.960  0.00  0.00    +0.033 C 
ATOM      6  C6  UNL d   1      -1.557  -3.561   0.679  0.00  0.00    +0.050 C 
ATOM      7  C7  UNL d   1       0.295  -2.476  -0.466  0.00  0.00    -0.025 C 
ATOM      8  C8  UNL d   1      -0.847  -2.390   0.365  0.00  0.00    -0.023 C 
ATOM      9  C9  UNL d   1      -0.024  -4.881  -0.638  0.00  0.00    +0.074 C 
ATOM     10  C10 UNL d   1      -1.147  -4.797   0.179  0.00  0.00    +0.083 C 
ENDROOT
BRANCH   9  11
ATOM     11  C11 UNL d   1       0.422  -6.180  -1.173  0.00  0.00    +0.212 C 
ATOM     12  O1  UNL d   1      -0.262  -6.728  -2.116  0.00  0.00    -0.644 OA
ATOM     13  O2  UNL d   1       1.479  -6.721  -0.678  0.00  0.00    -0.644 OA
ENDBRANCH   9  11
BRANCH  10  14
ATOM     14  O3  UNL d   1      -1.861  -5.912   0.504  0.00  0.00    -0.360 OA
ATOM     15  H7  UNL d   1      -1.266  -6.614   0.809  0.00  0.00    +0.217 HD
ENDBRANCH  10  14
TORSDOF 2
