REMARK  Name = TFP_out.pdbqt
REMARK  5 active torsions:
REMARK  status: ('A' for Active; 'I' for Inactive)
REMARK    1  A    between atoms: C8_8  and  C21_26
REMARK    2  A    between atoms: N1_13  and  C19_15
REMARK    3  A    between atoms: C19_15  and  C18_16
REMARK    4  A    between atoms: C18_16  and  C20_17
REMARK    5  A    between atoms: C20_17  and  N3_18
REMARK                            x       y       z     vdW  Elec       q    Type
REMARK                         _______ _______ _______ _____ _____    ______ ____
ROOT
ATOM      1  C1  UNL d   1      11.178  -4.131   4.249  0.00  0.00    +0.002 C 
ATOM      2  C2  UNL d   1      10.008  -3.393   4.153  0.00  0.00    +0.002 C 
ATOM      3  C3  UNL d   1      14.329   2.035   1.200  0.00  0.00    +0.017 C 
ATOM      4  C4  UNL d   1      12.343  -3.680   3.621  0.00  0.00    +0.031 C 
ATOM      5  C5  UNL d   1      10.007  -2.202   3.435  0.00  0.00    +0.021 C 
ATOM      6  C6  UNL d   1      13.024   1.588   1.374  0.00  0.00    +0.022 C 
ATOM      7  C7  UNL d   1      15.128  -0.179   1.718  0.00  0.00    +0.047 C 
ATOM      8  C8  UNL d   1      15.382   1.151   1.375  0.00  0.00    +0.050 C 
ATOM      9  C9  UNL d   1      12.373  -2.482   2.875  0.00  0.00    +0.052 C 
ATOM     10  C10 UNL d   1      13.815  -0.669   1.891  0.00  0.00    +0.053 C 
ATOM     11  C11 UNL d   1      11.177  -1.740   2.807  0.00  0.00    +0.032 C 
ATOM     12  C12 UNL d   1      12.762   0.251   1.724  0.00  0.00    +0.032 C 
ATOM     13  N1  UNL d   1      13.558  -2.017   2.250  0.00  0.00    -0.345 N 
ATOM     14  S1  UNL d   1      11.050  -0.213   1.897  0.00  0.00    -0.086 S 
ENDROOT
BRANCH   8  15
ATOM     15  C21 UNL d   1      16.788   1.623   1.206  0.00  0.00    +0.417 C 
ATOM     16  F1  UNL d   1      17.635   1.180   2.181  0.00  0.00    -0.166 F 
ATOM     17  F2  UNL d   1      17.358   1.227   0.030  0.00  0.00    -0.166 F 
ATOM     18  F3  UNL d   1      16.890   2.984   1.222  0.00  0.00    -0.166 F 
ENDBRANCH   8  15
BRANCH  13  19
ATOM     19  C19 UNL d   1      14.630  -2.994   2.020  0.00  0.00    +0.131 C 
BRANCH  19  20
ATOM     20  C18 UNL d   1      14.328  -3.859   0.798  0.00  0.00    +0.048 C 
BRANCH  20  21
ATOM     21  C20 UNL d   1      14.681  -3.158  -0.507  0.00  0.00    +0.236 C 
BRANCH  21  22
ATOM     22  N3  UNL d   1      13.423  -2.929  -1.297  0.00  0.00    -0.068 N 
ATOM     23  C15 UNL d   1      13.164  -1.462  -1.533  0.00  0.00    +0.265 C 
ATOM     24  C13 UNL d   1      11.917  -1.308  -2.397  0.00  0.00    +0.299 C 
ATOM     25  N2  UNL d   1      10.756  -1.953  -1.771  0.00  0.00    +0.087 NA
ATOM     26  C14 UNL d   1      11.008  -3.383  -1.553  0.00  0.00    +0.299 C 
ATOM     27  C17 UNL d   1       9.559  -1.761  -2.589  0.00  0.00    +0.310 C 
ATOM     28  C16 UNL d   1      12.229  -3.599  -0.665  0.00  0.00    +0.265 C 
ATOM     29  H25 UNL d   1      13.565  -3.365  -2.220  0.00  0.00    +0.280 HD
ENDBRANCH  21  22
ENDBRANCH  20  21
ENDBRANCH  19  20
ENDBRANCH  13  19
TORSDOF 5
