REMARK  Name = G1_out.pdbqt
REMARK  8 active torsions:
REMARK  status: ('A' for Active; 'I' for Inactive)
REMARK    1  A    between atoms: C20_1  and  C9_2
REMARK    2  A    between atoms: C20_1  and  C11_8
REMARK    3  A    between atoms: C20_1  and  C18_17
REMARK    4  A    between atoms: C12_14  and  O1_15
REMARK    5  A    between atoms: C18_17  and  C19_18
REMARK    6  A    between atoms: C19_18  and  N1_19
REMARK    7  A    between atoms: N1_19  and  C21_21
REMARK    8  A    between atoms: N1_19  and  C22_24
REMARK                            x       y       z     vdW  Elec       q    Type
REMARK                         _______ _______ _______ _____ _____    ______ ____
ROOT
ATOM      1  C20 CB8 d   1      10.071  40.145  29.869  0.00  0.00    +0.056 C 
ENDROOT
BRANCH   1   2
ATOM      2  C11 CB8 d   1      10.618  41.004  31.002  0.00  0.00    -0.016 C 
ATOM      3  C8  CB8 d   1       9.775  41.363  32.054  0.00  0.00    +0.017 C 
ATOM      4  C10 CB8 d   1      10.261  42.147  33.100  0.00  0.00    -0.061 C 
ATOM      5  C6  CB8 d   1      11.590  42.573  33.094  0.00  0.00    +0.009 C 
ATOM      6  C13 CB8 d   1       9.362  42.531  34.226  0.00  0.00    +0.048 C 
ATOM      7  C7  CB8 d   1      12.432  42.214  32.042  0.00  0.00    +0.037 C 
ATOM      8  C12 CB8 d   1      11.946  41.429  30.997  0.00  0.00    +0.072 C 
BRANCH   8   9
ATOM      9  O1  CB8 d   1      12.783  41.088  29.976  0.00  0.00    -0.360 OA
ATOM     10  H32 CB8 d   1      12.307  40.557  29.317  0.00  0.00    +0.217 HD
ENDBRANCH   8   9
ENDBRANCH   1   2
BRANCH   1  11
ATOM     11  C9  CB8 d   1       9.822  38.712  30.331  0.00  0.00    -0.050 C 
ATOM     12  C4  CB8 d   1      10.866  37.788  30.331  0.00  0.00    +0.008 C 
ATOM     13  C2  CB8 d   1      10.637  36.477  30.753  0.00  0.00    +0.001 C 
ATOM     14  C1  CB8 d   1       9.365  36.093  31.175  0.00  0.00    +0.000 C 
ATOM     15  C3  CB8 d   1       8.321  37.018  31.175  0.00  0.00    +0.001 C 
ATOM     16  C5  CB8 d   1       8.549  38.328  30.752  0.00  0.00    +0.008 C 
ENDBRANCH   1  11
BRANCH   1  17
ATOM     17  C18 CB8 d   1       8.851  40.774  29.147  0.00  0.00    +0.042 C 
BRANCH  17  18
ATOM     18  C19 CB8 d   1       8.825  40.445  27.657  0.00  0.00    +0.237 C 
BRANCH  18  19
ATOM     19  N1  CB8 d   1       8.650  38.981  27.489  0.00  0.00    -0.064 N 
ATOM     20  H31 CB8 d   1       8.699  38.546  28.427  0.00  0.00    +0.280 HD
BRANCH  19  21
ATOM     21  C21 CB8 d   1       7.296  38.618  26.931  0.00  0.00    +0.180 C 
ATOM     22  C14 CB8 d   1       6.676  37.556  27.824  0.00  0.00    +0.039 C 
ATOM     23  C15 CB8 d   1       7.477  38.135  25.501  0.00  0.00    +0.039 C 
ENDBRANCH  19  21
BRANCH  19  24
ATOM     24  C22 CB8 d   1       9.759  38.353  26.681  0.00  0.00    +0.180 C 
ATOM     25  C16 CB8 d   1       9.899  36.899  27.104  0.00  0.00    +0.039 C 
ATOM     26  C17 CB8 d   1      11.034  39.146  26.914  0.00  0.00    +0.039 C 
ENDBRANCH  19  24
ENDBRANCH  18  19
ENDBRANCH  17  18
ENDBRANCH   1  17
TORSDOF 8
