REMARK  Name = G7_out.pdbqt
REMARK  3 active torsions:
REMARK  status: ('A' for Active; 'I' for Inactive)
REMARK    1  A    between atoms: C7_3  and  C3_4
REMARK    2  A    between atoms: C7_3  and  C6_7
REMARK    3  A    between atoms: C6_7  and  C2_8
REMARK                            x       y       z     vdW  Elec       q    Type
REMARK                         _______ _______ _______ _____ _____    ______ ____
ROOT
ATOM      1  C4  OA- d   1       0.380  -0.982  -4.081  0.00  0.00    +0.026 C 
ATOM      2  C5  OA- d   1       2.160  -0.161  -2.531  0.00  0.00    +0.026 C 
ATOM      3  C7  OA- d   1       0.645  -0.223  -2.770  0.00  0.00    +0.044 C 
ENDROOT
BRANCH   3   4
ATOM      4  C3  OA- d   1       0.031   1.186  -3.031  0.00  0.00    +0.181 C 
ATOM      5  O1  OA- d   1       0.835   2.059  -3.468  0.00  0.00    -0.647 OA
ATOM      6  O2  OA- d   1      -1.199   1.309  -2.768  0.00  0.00    -0.647 OA
ENDBRANCH   3   4
BRANCH   3   7
ATOM      7  C6  OA- d   1      -0.070  -0.955  -1.609  0.00  0.00    +0.046 C 
BRANCH   7   8
ATOM      8  C2  OA- d   1       0.443  -0.590  -0.242  0.00  0.00    -0.036 C 
ATOM      9  C1  OA- d   1      -0.250   0.129   0.649  0.00  0.00    +0.007 C 
ENDBRANCH   7   8
ENDBRANCH   3   7
TORSDOF 3
