REMARK  Name = g17_out.pdbqt
REMARK  13 active torsions:
REMARK  status: ('A' for Active; 'I' for Inactive)
REMARK    1  A    between atoms: C1_1  and  C2_2
REMARK    2  A    between atoms: C1_1  and  C3_12
REMARK    3  A    between atoms: C2_2  and  C4_3
REMARK    4  A    between atoms: C4_3  and  C6_4
REMARK    5  A    between atoms: C6_4  and  C8_5
REMARK    6  A    between atoms: C8_5  and  C10_6
REMARK    7  A    between atoms: C10_6  and  C12_7
REMARK    8  A    between atoms: C12_7  and  N2_8
REMARK    9  A    between atoms: C3_12  and  C5_13
REMARK   10  A    between atoms: C5_13  and  C7_14
REMARK   11  A    between atoms: C7_14  and  C9_15
REMARK   12  A    between atoms: C9_15  and  C11_16
REMARK   13  A    between atoms: C11_16  and  N1_17
REMARK                            x       y       z     vdW  Elec       q    Type
REMARK                         _______ _______ _______ _____ _____    ______ ____
ROOT
ATOM      1  C1  UNL d   1       4.488  25.536  23.567  0.00  0.00    +0.000 C 
ENDROOT
BRANCH   1   2
ATOM      2  C2  UNL d   1       5.432  25.418  24.764  0.00  0.00    +0.000 C 
BRANCH   2   3
ATOM      3  C4  UNL d   1       4.670  25.546  26.085  0.00  0.00    +0.000 C 
BRANCH   3   4
ATOM      4  C6  UNL d   1       5.384  24.799  27.214  0.00  0.00    +0.000 C 
BRANCH   4   5
ATOM      5  C8  UNL d   1       4.437  24.528  28.387  0.00  0.00    +0.002 C 
BRANCH   5   6
ATOM      6  C10 UNL d   1       4.464  25.679  29.396  0.00  0.00    +0.027 C 
BRANCH   6   7
ATOM      7  C12 UNL d   1       3.141  25.874  30.128  0.00  0.00    +0.229 C 
BRANCH   7   8
ATOM      8  N2  UNL d   1       2.384  24.602  30.188  0.00  0.00    -0.079 N 
ATOM      9  H28 UNL d   1       1.400  24.770  30.426  0.00  0.00    +0.274 HD
ATOM     10  H29 UNL d   1       2.776  23.973  30.898  0.00  0.00    +0.274 HD
ATOM     11  H30 UNL d   1       2.411  24.114  29.285  0.00  0.00    +0.274 HD
ENDBRANCH   7   8
ENDBRANCH   6   7
ENDBRANCH   5   6
ENDBRANCH   4   5
ENDBRANCH   3   4
ENDBRANCH   2   3
ENDBRANCH   1   2
BRANCH   1  12
ATOM     12  C3  UNL d   1       3.030  25.791  23.965  0.00  0.00    +0.000 C 
BRANCH  12  13
ATOM     13  C5  UNL d   1       2.032  25.459  22.853  0.00  0.00    +0.000 C 
BRANCH  13  14
ATOM     14  C7  UNL d   1       0.573  25.692  23.260  0.00  0.00    +0.002 C 
BRANCH  14  15
ATOM     15  C9  UNL d   1      -0.433  25.064  22.290  0.00  0.00    +0.027 C 
BRANCH  15  16
ATOM     16  C11 UNL d   1      -1.847  24.986  22.855  0.00  0.00    +0.229 C 
BRANCH  16  17
ATOM     17  N1  UNL d   1      -2.848  25.003  21.763  0.00  0.00    -0.079 N 
ATOM     18  H25 UNL d   1      -3.025  24.055  21.411  0.00  0.00    +0.274 HD
ATOM     19  H26 UNL d   1      -2.523  25.576  20.976  0.00  0.00    +0.274 HD
ATOM     20  H27 UNL d   1      -3.741  25.390  22.087  0.00  0.00    +0.274 HD
ENDBRANCH  16  17
ENDBRANCH  15  16
ENDBRANCH  14  15
ENDBRANCH  13  14
ENDBRANCH  12  13
ENDBRANCH   1  12
TORSDOF 13
