REMARK  Name = G3_out.pdbqt
REMARK  4 active torsions:
REMARK  status: ('A' for Active; 'I' for Inactive)
REMARK    1  A    between atoms: C5_1  and  C3_2
REMARK    2  A    between atoms: C5_1  and  C6_5
REMARK    3  A    between atoms: C6_5  and  C4_6
REMARK    4  A    between atoms: C4_6  and  C2_7
REMARK                            x       y       z     vdW  Elec       q    Type
REMARK                         _______ _______ _______ _____ _____    ______ ____
ROOT
ATOM      1  C5  OA- d   1      -0.528  -0.379  -3.464  0.00  0.00    +0.113 C 
ENDROOT
BRANCH   1   2
ATOM      2  C3  OA- d   1      -0.918   1.088  -3.256  0.00  0.00    +0.172 C 
ATOM      3  O1  OA- d   1      -2.009   1.254  -2.637  0.00  0.00    -0.648 OA
ATOM      4  O2  OA- d   1      -0.114   1.951  -3.704  0.00  0.00    -0.648 OA
ENDBRANCH   1   2
BRANCH   1   5
ATOM      5  C6  OA- d   1      -0.150  -1.168  -2.213  0.00  0.00    +0.014 C 
BRANCH   5   6
ATOM      6  C4  OA- d   1       1.027  -0.537  -1.463  0.00  0.00    +0.027 C 
BRANCH   6   7
ATOM      7  C2  OA- d   1       0.703  -0.342  -0.011  0.00  0.00    -0.037 C 
ATOM      8  C1  OA- d   1      -0.456   0.150   0.438  0.00  0.00    +0.007 C 
ENDBRANCH   6   7
ENDBRANCH   5   6
ENDBRANCH   1   5
TORSDOF 4
