REMARK  Name = 6_out.pdbqt
REMARK  2 active torsions:
REMARK  status: ('A' for Active; 'I' for Inactive)
REMARK    1  A    between atoms: C5_5  and  N1_7
REMARK    2  A    between atoms: C6_6  and  O1_11
REMARK                            x       y       z     vdW  Elec       q    Type
REMARK                         _______ _______ _______ _____ _____    ______ ____
ROOT
ATOM      1  C1  <0> d   1       1.588   0.298  -0.045  0.00  0.00    +0.035 C 
ATOM      2  C2  <0> d   1      -0.603  -0.978  -0.170  0.00  0.00    +0.035 C 
ATOM      3  C3  <0> d   1       0.837   1.606  -0.309  0.00  0.00    +0.034 C 
ATOM      4  C4  <0> d   1      -1.349   0.334  -0.431  0.00  0.00    +0.034 C 
ATOM      5  C5  <0> d   1       0.864  -0.931  -0.596  0.00  0.00    +0.183 C 
ATOM      6  C6  <0> d   1      -0.618   1.541   0.156  0.00  0.00    +0.118 C 
ENDROOT
BRANCH   5   7
ATOM      7  N1  <0> d   1       0.944  -0.921  -2.085  0.00  0.00    -0.075 N 
ATOM      8  H11 <0> d   1       1.258  -1.831  -2.433  0.00  0.00    +0.274 HD
ATOM      9  H12 <0> d   1       1.603  -0.209  -2.404  0.00  0.00    +0.274 HD
ATOM     10  H13 <0> d   1       0.027  -0.720  -2.493  0.00  0.00    +0.274 HD
ENDBRANCH   5   7
BRANCH   6  11
ATOM     11  O1  <0> d   1      -0.665   1.454   1.579  0.00  0.00    -0.396 OA
ATOM     12  H14 <0> d   1      -0.459   0.535   1.806  0.00  0.00    +0.210 HD
ENDBRANCH   6  11
TORSDOF 2
