REMARK  Name = PMZ_out.pdbqt
REMARK  4 active torsions:
REMARK  status: ('A' for Active; 'I' for Inactive)
REMARK    1  A    between atoms: N1_13  and  C16_15
REMARK    2  A    between atoms: C16_15  and  C15_16
REMARK    3  A    between atoms: C15_16  and  C17_17
REMARK    4  A    between atoms: C17_17  and  N2_18
REMARK                            x       y       z     vdW  Elec       q    Type
REMARK                         _______ _______ _______ _____ _____    ______ ____
ROOT
ATOM      1  C1  UNL d   1      16.571   1.548   2.206  0.00  0.00    +0.002 C 
ATOM      2  C2  UNL d   1      13.370  -3.634  -1.885  0.00  0.00    +0.002 C 
ATOM      3  C3  UNL d   1      16.009   2.599   1.496  0.00  0.00    +0.002 C 
ATOM      4  C4  UNL d   1      12.719  -2.726  -2.708  0.00  0.00    +0.002 C 
ATOM      5  C5  UNL d   1      16.124   0.242   1.990  0.00  0.00    +0.031 C 
ATOM      6  C6  UNL d   1      14.004  -3.192  -0.721  0.00  0.00    +0.031 C 
ATOM      7  C7  UNL d   1      15.006   2.340   0.568  0.00  0.00    +0.021 C 
ATOM      8  C8  UNL d   1      12.709  -1.377  -2.367  0.00  0.00    +0.021 C 
ATOM      9  C9  UNL d   1      15.100  -0.055   1.065  0.00  0.00    +0.052 C 
ATOM     10  C10 UNL d   1      14.003  -1.833  -0.339  0.00  0.00    +0.052 C 
ATOM     11  C11 UNL d   1      14.556   1.026   0.344  0.00  0.00    +0.032 C 
ATOM     12  C12 UNL d   1      13.350  -0.927  -1.199  0.00  0.00    +0.032 C 
ATOM     13  N1  UNL d   1      14.656  -1.382   0.836  0.00  0.00    -0.345 N 
ATOM     14  S1  UNL d   1      13.252   0.818  -0.853  0.00  0.00    -0.086 S 
ENDROOT
BRANCH  13  15
ATOM     15  C16 UNL d   1      14.960  -2.383   1.867  0.00  0.00    +0.131 C 
BRANCH  15  16
ATOM     16  C15 UNL d   1      14.009  -2.250   3.054  0.00  0.00    +0.048 C 
BRANCH  16  17
ATOM     17  C17 UNL d   1      12.650  -2.882   2.781  0.00  0.00    +0.235 C 
BRANCH  17  18
ATOM     18  N2  UNL d   1      11.584  -1.942   3.209  0.00  0.00    -0.079 N 
ATOM     19  C13 UNL d   1      11.663  -0.612   2.501  0.00  0.00    +0.269 C 
ATOM     20  C14 UNL d   1      10.203  -2.540   3.095  0.00  0.00    +0.269 C 
ATOM     21  H21 UNL d   1      11.726  -1.740   4.215  0.00  0.00    +0.278 HD
ENDBRANCH  17  18
ENDBRANCH  16  17
ENDBRANCH  15  16
ENDBRANCH  13  15
TORSDOF 4
