REMARK  Name = g15_out.pdbqt
REMARK  7 active torsions:
REMARK  status: ('A' for Active; 'I' for Inactive)
REMARK    1  A    between atoms: C7_1  and  C8_2
REMARK    2  A    between atoms: C7_1  and  C9_9
REMARK    3  A    between atoms: C8_2  and  C10_3
REMARK    4  A    between atoms: C10_3  and  C12_4
REMARK    5  A    between atoms: C12_4  and  N2_5
REMARK    6  A    between atoms: C9_9  and  C11_10
REMARK    7  A    between atoms: C11_10  and  N1_11
REMARK                            x       y       z     vdW  Elec       q    Type
REMARK                         _______ _______ _______ _____ _____    ______ ____
ROOT
ATOM      1  C7  UNL d   1       0.259  25.100  22.644  0.00  0.00    +0.002 C 
ENDROOT
BRANCH   1   2
ATOM      2  C8  UNL d   1       1.208  26.020  23.415  0.00  0.00    +0.002 C 
BRANCH   2   3
ATOM      3  C10 UNL d   1       2.649  25.512  23.349  0.00  0.00    +0.028 C 
BRANCH   3   4
ATOM      4  C12 UNL d   1       3.414  25.876  24.613  0.00  0.00    +0.236 C 
BRANCH   4   5
ATOM      5  N2  UNL d   1       4.842  26.084  24.273  0.00  0.00    -0.079 N 
ATOM      6  C4  UNL d   1       5.753  25.324  25.248  0.00  0.00    +0.271 C 
ATOM      7  C5  UNL d   1       5.144  25.587  22.853  0.00  0.00    +0.271 C 
ATOM      8  C6  UNL d   1       5.208  27.573  24.344  0.00  0.00    +0.271 C 
ENDBRANCH   4   5
ENDBRANCH   3   4
ENDBRANCH   2   3
ENDBRANCH   1   2
BRANCH   1   9
ATOM      9  C9  UNL d   1      -1.204  25.460  22.911  0.00  0.00    +0.028 C 
BRANCH   9  10
ATOM     10  C11 UNL d   1      -2.135  24.362  22.420  0.00  0.00    +0.236 C 
BRANCH  10  11
ATOM     11  N1  UNL d   1      -3.531  24.711  22.780  0.00  0.00    -0.079 N 
ATOM     12  C1  UNL d   1      -3.572  25.985  23.635  0.00  0.00    +0.271 C 
ATOM     13  C2  UNL d   1      -4.374  24.955  21.521  0.00  0.00    +0.271 C 
ATOM     14  C3  UNL d   1      -4.187  23.578  23.581  0.00  0.00    +0.271 C 
ENDBRANCH  10  11
ENDBRANCH   9  10
ENDBRANCH   1   9
TORSDOF 7
