REMARK  Name = 14_out.pdbqt
REMARK  2 active torsions:
REMARK  status: ('A' for Active; 'I' for Inactive)
REMARK    1  A    between atoms: C9_9  and  N1_11
REMARK    2  A    between atoms: C10_10  and  O1_15
REMARK                            x       y       z     vdW  Elec       q    Type
REMARK                         _______ _______ _______ _____ _____    ______ ____
ROOT
ATOM      1  C1  <0> d   1      -0.804   1.759   0.092  0.00  0.00    +0.009 C 
ATOM      2  C2  <0> d   1      -1.072  -0.203  -1.451  0.00  0.00    +0.043 C 
ATOM      3  C3  <0> d   1       1.203   0.808  -1.078  0.00  0.00    +0.043 C 
ATOM      4  C4  <0> d   1      -1.341  -0.507   1.024  0.00  0.00    +0.042 C 
ATOM      5  C5  <0> d   1       0.928   0.499   1.396  0.00  0.00    +0.042 C 
ATOM      6  C6  <0> d   1       0.667  -1.465  -0.145  0.00  0.00    +0.076 C 
ATOM      7  C7  <0> d   1      -1.582   0.453  -0.154  0.00  0.00    -0.009 C 
ATOM      8  C8  <0> d   1       0.703   1.466   0.222  0.00  0.00    -0.009 C 
ATOM      9  C9  <0> d   1       0.432  -0.502  -1.318  0.00  0.00    +0.127 C 
ATOM     10  C10 <0> d   1       0.163  -0.815   1.156  0.00  0.00    +0.061 C 
ENDROOT
BRANCH   9  11
ATOM     11  N1  <0> d   1       0.918  -1.131  -2.572  0.00  0.00    -0.070 N 
ATOM     12  H15 <0> d   1       0.505  -0.677  -3.394  0.00  0.00    +0.275 HD
ATOM     13  H16 <0> d   1       0.668  -2.126  -2.602  0.00  0.00    +0.275 HD
ATOM     14  H17 <0> d   1       1.938  -1.058  -2.647  0.00  0.00    +0.275 HD
ENDBRANCH   9  11
BRANCH  10  15
ATOM     15  O1  <0> d   1       0.360  -1.700   2.250  0.00  0.00    -0.390 OA
ATOM     16  H18 <0> d   1      -0.396  -2.309   2.258  0.00  0.00    +0.210 HD
ENDBRANCH  10  15
TORSDOF 2
