REMARK  Name = 6_out.pdbqt
REMARK  1 active torsions:
REMARK  status: ('A' for Active; 'I' for Inactive)
REMARK    1  A    between atoms: C7_6  and  C1_7
REMARK                            x       y       z     vdW  Elec       q    Type
REMARK                         _______ _______ _______ _____ _____    ______ ____
ROOT
ATOM      1  C2  <0> d   1      -1.516  -7.751   4.202  0.00  0.00    +0.000 C 
ATOM      2  C3  <0> d   1      -1.448  -9.138   4.829  0.00  0.00    +0.001 C 
ATOM      3  C4  <0> d   1      -0.352  -6.877   4.652  0.00  0.00    +0.001 C 
ATOM      4  C5  <0> d   1      -0.109  -9.823   4.553  0.00  0.00    +0.015 C 
ATOM      5  C6  <0> d   1       0.995  -7.535   4.356  0.00  0.00    +0.015 C 
ATOM      6  C7  <0> d   1       1.101  -8.958   4.910  0.00  0.00    +0.087 C 
ENDROOT
BRANCH   6   7
ATOM      7  C1  <0> d   1       1.320  -8.920   6.394  0.00  0.00    +0.177 C 
ATOM      8  O1  <0> d   1       1.827  -7.854   6.838  0.00  0.00    -0.648 OA
ATOM      9  O2  <0> d   1       0.966  -9.966   7.008  0.00  0.00    -0.648 OA
ENDBRANCH   6   7
TORSDOF 1
