REMARK  Name = G5_out.pdbqt
REMARK  3 active torsions:
REMARK  status: ('A' for Active; 'I' for Inactive)
REMARK    1  A    between atoms: C4_4  and  C7_7
REMARK    2  A    between atoms: C7_7  and  C8_8
REMARK    3  A    between atoms: C8_8  and  N1_9
REMARK                            x       y       z     vdW  Elec       q    Type
REMARK                         _______ _______ _______ _____ _____    ______ ____
ROOT
ATOM      1  C1  MOL d   1       0.726  -0.262   0.108  0.00  0.00    +0.000 C 
ATOM      2  C2  MOL d   1       1.360  -0.636  -1.089  0.00  0.00    +0.001 C 
ATOM      3  C3  MOL d   1       0.693  -0.486  -2.316  0.00  0.00    +0.007 C 
ATOM      4  C4  MOL d   1      -0.611   0.051  -2.352  0.00  0.00    -0.057 C 
ATOM      5  C5  MOL d   1      -1.253   0.401  -1.146  0.00  0.00    +0.007 C 
ATOM      6  C6  MOL d   1      -0.581   0.249   0.080  0.00  0.00    +0.001 C 
ENDROOT
BRANCH   4   7
ATOM      7  C7  MOL d   1      -1.322   0.247  -3.678  0.00  0.00    +0.066 C 
BRANCH   7   8
ATOM      8  C8  MOL d   1      -1.128   1.707  -4.173  0.00  0.00    +0.240 C 
BRANCH   8   9
ATOM      9  N1  MOL d   1      -0.068   1.877  -5.248  0.00  0.00    -0.078 N 
ATOM     10  C9  MOL d   1      -0.537   2.924  -6.188  0.00  0.00    +0.271 C 
ATOM     11  C10 MOL d   1       0.115   0.615  -6.022  0.00  0.00    +0.271 C 
ATOM     12  C11 MOL d   1       1.242   2.302  -4.688  0.00  0.00    +0.271 C 
ENDBRANCH   8   9
ENDBRANCH   7   8
ENDBRANCH   4   7
TORSDOF 3
