REMARK  Name = g5_out.pdbqt
REMARK  3 active torsions:
REMARK  status: ('A' for Active; 'I' for Inactive)
REMARK    1  A    between atoms: C6_6  and  C10_7
REMARK    2  A    between atoms: C10_7  and  C11_8
REMARK    3  A    between atoms: C11_8  and  N1_9
REMARK                            x       y       z     vdW  Elec       q    Type
REMARK                         _______ _______ _______ _____ _____    ______ ____
ROOT
ATOM      1  C1  UNL d   1       0.225   0.687  -0.675  0.00  0.00    +0.000 C 
ATOM      2  C2  UNL d   1       0.909   1.096  -1.820  0.00  0.00    +0.001 C 
ATOM      3  C3  UNL d   1      -0.502  -0.505  -0.686  0.00  0.00    +0.001 C 
ATOM      4  C4  UNL d   1       0.868   0.315  -2.974  0.00  0.00    +0.007 C 
ATOM      5  C5  UNL d   1      -0.543  -1.286  -1.840  0.00  0.00    +0.007 C 
ATOM      6  C6  UNL d   1       0.141  -0.877  -2.985  0.00  0.00    -0.057 C 
ENDROOT
BRANCH   6   7
ATOM      7  C10 UNL d   1       0.095  -1.722  -4.233  0.00  0.00    +0.066 C 
BRANCH   7   8
ATOM      8  C11 UNL d   1      -1.319  -1.999  -4.731  0.00  0.00    +0.241 C 
BRANCH   8   9
ATOM      9  N1  UNL d   1      -1.696  -1.010  -5.822  0.00  0.00    -0.073 N 
ATOM     10  C7  UNL d   1      -2.706  -1.624  -6.722  0.00  0.00    +0.264 C 
ATOM     11  C8  UNL d   1      -0.467  -0.653  -6.641  0.00  0.00    +0.272 C 
ATOM     12  C9  UNL d   1      -2.294   0.240  -5.203  0.00  0.00    +0.272 C 
ENDBRANCH   8   9
ENDBRANCH   7   8
ENDBRANCH   6   7
TORSDOF 3
