/inspire/ssd/ws-f4d69b29-e0a5-44e6-bd92-acf4de9990f0/public-project/hurenling-241310070200/LamNet/model/LamNet/data/rbfe/syk-nnp/CHEMBL3265014/CHEMBL3265014.pdb
 OpenBabel01062511123D

 31 34  0  0  0  0  0  0  0  0999 V2000
   44.3370   28.6320   47.2670 C   0  0  0  0  0  0  0  0  0  0  0  0
   44.7420   29.3640   48.4160 O   0  0  0  0  0  0  0  0  0  0  0  0
   46.0840   29.6490   48.4580 C   0  0  0  0  0  0  0  0  0  0  0  0
   46.9160   28.8900   49.2820 C   0  0  0  0  0  0  0  0  0  0  0  0
   48.2770   29.1840   49.3700 C   0  0  0  0  0  0  0  0  0  0  0  0
   48.8250   30.2480   48.6480 C   0  0  0  0  0  0  0  0  0  0  0  0
   50.1960   30.5170   48.8180 N   0  0  0  0  0  0  0  0  0  0  0  0
   51.0990   31.4390   48.2520 C   0  0  0  0  0  0  0  0  0  0  0  0
   50.7070   32.2790   47.2530 N   0  0  0  0  0  0  0  0  0  0  0  0
   51.5650   33.2040   46.7410 C   0  0  0  0  0  0  0  0  0  0  0  0
   52.8800   33.2940   47.1900 C   0  0  0  0  0  0  0  0  0  0  0  0
   53.2720   32.4660   48.2030 N   0  0  0  0  0  0  0  0  0  0  0  0
   54.4450   32.3740   48.8920 C   0  0  0  0  0  0  0  0  0  0  0  0
   54.1930   31.4460   49.8950 C   0  0  0  0  0  0  0  0  0  0  0  0
   53.0170   30.8690   49.8010 N   0  0  0  0  0  0  0  0  0  0  0  0
   52.4070   31.5160   48.7740 C   0  0  0  0  0  0  0  0  0  0  0  0
   51.0290   34.1320   45.7010 C   0  0  0  0  0  0  0  0  0  0  0  0
   51.8770   34.6560   44.7120 C   0  0  0  0  0  0  0  0  0  0  0  0
   51.3840   35.4900   43.7130 C   0  0  0  0  0  0  0  0  0  0  0  0
   50.0300   35.8100   43.6790 C   0  0  0  0  0  0  0  0  0  0  0  0
   49.5000   36.6950   42.5900 C   0  0  0  0  0  0  0  0  0  0  0  0
   48.3280   37.0400   42.4630 O   0  0  0  0  0  0  0  0  0  0  0  0
   50.4620   37.0780   41.7490 N   0  0  0  0  0  0  0  0  0  0  0  0
   49.1600   35.3210   44.6600 C   0  0  0  0  0  0  0  0  0  0  0  0
   47.8190   35.6460   44.6350 O   0  0  0  0  0  0  0  0  0  0  0  0
   47.0680   35.1010   45.6570 C   0  0  0  0  0  0  0  0  0  0  0  0
   49.6730   34.4960   45.6720 C   0  0  0  0  0  0  0  0  0  0  0  0
   47.9810   31.0020   47.8230 C   0  0  0  0  0  0  0  0  0  0  0  0
   46.6110   30.7150   47.7160 C   0  0  0  0  0  0  0  0  0  0  0  0
   45.7950   31.4840   46.9120 O   0  0  0  0  0  0  0  0  0  0  0  0
   46.4360   32.5020   46.2340 C   0  0  0  0  0  0  0  0  0  0  0  0
  1  2  1  0  0  0  0
  2  3  1  0  0  0  0
  3  4  2  0  0  0  0
  3 29  1  0  0  0  0
  4  5  1  0  0  0  0
  5  6  2  0  0  0  0
  6  7  1  0  0  0  0
  6 28  1  0  0  0  0
  7  8  1  0  0  0  0
  8  9  2  0  0  0  0
  8 16  1  0  0  0  0
  9 10  1  0  0  0  0
 10 11  2  0  0  0  0
 10 17  1  0  0  0  0
 11 12  1  0  0  0  0
 12 13  1  0  0  0  0
 12 16  1  0  0  0  0
 13 14  2  0  0  0  0
 14 15  1  0  0  0  0
 15 16  2  0  0  0  0
 17 18  2  0  0  0  0
 17 27  1  0  0  0  0
 18 19  1  0  0  0  0
 19 20  2  0  0  0  0
 20 21  1  0  0  0  0
 20 24  1  0  0  0  0
 21 22  2  0  0  0  0
 21 23  1  0  0  0  0
 24 25  1  0  0  0  0
 24 27  2  0  0  0  0
 25 26  1  0  0  0  0
 28 29  2  0  0  0  0
 29 30  1  0  0  0  0
 30 31  1  0  0  0  0
M  END
>  <COMPND>
    /Users/00mac/Documents/LamNet/model/LamNet/data/rbfe/syk-nnp/CHEMBL3265014/CHEMBL3265014.pdb 

>  <AUTHOR>
    GENERATED BY OPEN BABEL 3.1.0

>  <MASTER>
        0    0    0    0    0    0    0    0   31    0   31    0

$$$$
