REMARK  Name = G2_out.pdbqt
REMARK  2 active torsions:
REMARK  status: ('A' for Active; 'I' for Inactive)
REMARK    1  A    between atoms: C2_2  and  C4_7
REMARK    2  A    between atoms: C9_6  and  C5_10
REMARK                            x       y       z     vdW  Elec       q    Type
REMARK                         _______ _______ _______ _____ _____    ______ ____
ROOT
ATOM      1  C1  TEM d   1       0.324  -0.705  -3.940  0.00  0.00    -0.012 C 
ATOM      2  C2  TEM d   1       0.151   0.619  -4.057  0.00  0.00    +0.015 C 
ATOM      3  C6  TEM d   1      -0.213  -1.496  -2.778  0.00  0.00    +0.036 C 
ATOM      4  C7  TEM d   1      -0.612   1.452  -3.073  0.00  0.00    +0.046 C 
ATOM      5  C8  TEM d   1      -1.454   0.605  -2.111  0.00  0.00    +0.014 C 
ATOM      6  C9  TEM d   1      -0.704  -0.633  -1.599  0.00  0.00    +0.017 C 
ENDROOT
BRANCH   2   7
ATOM      7  C4  TEM d   1       0.729   1.280  -5.230  0.00  0.00    +0.204 C 
ATOM      8  O1  TEM d   1       0.088   2.284  -5.648  0.00  0.00    -0.644 OA
ATOM      9  O2  TEM d   1       1.793   0.760  -5.667  0.00  0.00    -0.644 OA
ENDBRANCH   2   7
BRANCH   6  10
ATOM     10  C5  TEM d   1       0.420  -0.250  -0.680  0.00  0.00    -0.089 C 
ATOM     11  C3  TEM d   1       1.688  -0.164  -1.108  0.00  0.00    +0.014 C 
ATOM     12  C10 TEM d   1       0.043   0.033   0.744  0.00  0.00    +0.043 C 
ENDBRANCH   6  10
TORSDOF 2
