REMARK  Name = 12_out.pdbqt
REMARK  1 active torsions:
REMARK  status: ('A' for Active; 'I' for Inactive)
REMARK    1  A    between atoms: C5_5  and  N1_11
REMARK                            x       y       z     vdW  Elec       q    Type
REMARK                         _______ _______ _______ _____ _____    ______ ____
ROOT
ATOM      1  C1  <0> d   1       0.997  -1.703   0.202  0.00  0.00    +0.006 C 
ATOM      2  C2  <0> d   1      -0.330  -1.209   0.804  0.00  0.00    +0.012 C 
ATOM      3  C3  <0> d   1       1.877   0.612   0.121  0.00  0.00    +0.039 C 
ATOM      4  C4  <0> d   1       1.385  -0.559  -0.764  0.00  0.00    -0.004 C 
ATOM      5  C5  <0> d   1       0.565   1.165   0.701  0.00  0.00    +0.192 C 
ATOM      6  C6  <0> d   1      -0.513   0.187   0.145  0.00  0.00    -0.009 C 
ATOM      7  C7  <0> d   1       0.016  -0.065  -1.306  0.00  0.00    -0.035 C 
ATOM      8  C8  <0> d   1      -1.931   0.713   0.267  0.00  0.00    +0.018 C 
ATOM      9  C9  <0> d   1      -0.754  -1.120  -2.127  0.00  0.00    +0.016 C 
ATOM     10  C10 <0> d   1       0.113   1.182  -2.210  0.00  0.00    +0.016 C 
ENDROOT
BRANCH   5  11
ATOM     11  N1  <0> d   1       0.618   1.218   2.176  0.00  0.00    -0.074 N 
ATOM     12  H18 <0> d   1       1.328   1.888   2.500  0.00  0.00    +0.274 HD
ATOM     13  H19 <0> d   1       0.853   0.300   2.574  0.00  0.00    +0.274 HD
ATOM     14  H20 <0> d   1      -0.286   1.507   2.572  0.00  0.00    +0.274 HD
ENDBRANCH   5  11
TORSDOF 1
