REMARK  Name = G11_out.pdbqt
REMARK  2 active torsions:
REMARK  status: ('A' for Active; 'I' for Inactive)
REMARK    1  A    between atoms: C4_1  and  C5_2
REMARK    2  A    between atoms: C4_1  and  N1_6
REMARK                            x       y       z     vdW  Elec       q    Type
REMARK                         _______ _______ _______ _____ _____    ______ ____
ROOT
ATOM      1  C4  UNL d   1       0.624  -0.843   0.316  0.00  0.00    +0.237 C 
ENDROOT
BRANCH   1   2
ATOM      2  C5  UNL d   1      -0.324  -0.526  -0.860  0.00  0.00    -0.028 C 
ATOM      3  C1  UNL d   1      -0.480  -1.736  -1.796  0.00  0.00    +0.016 C 
ATOM      4  C2  UNL d   1      -1.705  -0.180  -0.273  0.00  0.00    +0.016 C 
ATOM      5  C3  UNL d   1       0.178   0.681  -1.673  0.00  0.00    +0.016 C 
ENDBRANCH   1   2
BRANCH   1   6
ATOM      6  N1  UNL d   1       1.718   0.149   0.449  0.00  0.00    -0.079 N 
ATOM      7  H12 UNL d   1       1.834   0.440   1.425  0.00  0.00    +0.274 HD
ATOM      8  H13 UNL d   1       1.522   0.988  -0.110  0.00  0.00    +0.274 HD
ATOM      9  H14 UNL d   1       2.610  -0.242   0.127  0.00  0.00    +0.274 HD
ENDBRANCH   1   6
TORSDOF 2
