/inspire/ssd/ws-f4d69b29-e0a5-44e6-bd92-acf4de9990f0/public-project/hurenling-241310070200/LamNet/model/LamNet/data/rbfe/syk-nnp/CHEMBL3265005/CHEMBL3265005.pdb
 OpenBabel01062511123D

 29 32  0  0  0  0  0  0  0  0999 V2000
   44.3250   28.8580   47.0750 C   0  0  0  0  0  0  0  0  0  0  0  0
   44.7110   29.6000   48.2220 O   0  0  0  0  0  0  0  0  0  0  0  0
   46.0600   29.8470   48.3250 C   0  0  0  0  0  0  0  0  0  0  0  0
   46.8310   29.0860   49.1900 C   0  0  0  0  0  0  0  0  0  0  0  0
   48.1920   29.3390   49.3260 C   0  0  0  0  0  0  0  0  0  0  0  0
   48.8040   30.3610   48.5990 C   0  0  0  0  0  0  0  0  0  0  0  0
   50.1920   30.5800   48.8390 N   0  0  0  0  0  0  0  0  0  0  0  0
   51.1230   31.4910   48.2780 C   0  0  0  0  0  0  0  0  0  0  0  0
   50.7690   32.3230   47.2470 N   0  0  0  0  0  0  0  0  0  0  0  0
   51.7120   33.1740   46.7340 C   0  0  0  0  0  0  0  0  0  0  0  0
   53.0130   33.2120   47.2150 C   0  0  0  0  0  0  0  0  0  0  0  0
   53.3390   32.4170   48.2720 N   0  0  0  0  0  0  0  0  0  0  0  0
   54.4910   32.3080   48.9980 C   0  0  0  0  0  0  0  0  0  0  0  0
   54.1830   31.3940   50.0350 C   0  0  0  0  0  0  0  0  0  0  0  0
   52.9680   30.8820   49.8810 N   0  0  0  0  0  0  0  0  0  0  0  0
   52.4290   31.5370   48.8370 C   0  0  0  0  0  0  0  0  0  0  0  0
   51.2550   34.0920   45.6350 C   0  0  0  0  0  0  0  0  0  0  0  0
   52.1670   34.5720   44.6790 C   0  0  0  0  0  0  0  0  0  0  0  0
   51.7330   35.3940   43.6390 C   0  0  0  0  0  0  0  0  0  0  0  0
   50.3910   35.7610   43.5390 C   0  0  0  0  0  0  0  0  0  0  0  0
   49.4700   35.3150   44.5030 C   0  0  0  0  0  0  0  0  0  0  0  0
   49.9100   34.4850   45.5470 C   0  0  0  0  0  0  0  0  0  0  0  0
   47.9930   35.7150   44.4260 C   0  0  0  0  0  0  0  0  0  0  0  0
   47.1920   35.3250   45.2620 O   0  0  0  0  0  0  0  0  0  0  0  0
   47.6470   36.4990   43.4090 N   0  0  0  0  0  0  0  0  0  0  0  0
   48.0370   31.1350   47.7020 C   0  0  0  0  0  0  0  0  0  0  0  0
   46.6460   30.8660   47.5720 C   0  0  0  0  0  0  0  0  0  0  0  0
   45.8430   31.6070   46.7190 O   0  0  0  0  0  0  0  0  0  0  0  0
   46.3830   32.4890   45.7620 C   0  0  0  0  0  0  0  0  0  0  0  0
  1  2  1  0  0  0  0
  2  3  1  0  0  0  0
  3  4  2  0  0  0  0
  3 27  1  0  0  0  0
  4  5  1  0  0  0  0
  5  6  2  0  0  0  0
  6  7  1  0  0  0  0
  6 26  1  0  0  0  0
  7  8  1  0  0  0  0
  8  9  2  0  0  0  0
  8 16  1  0  0  0  0
  9 10  1  0  0  0  0
 10 11  2  0  0  0  0
 10 17  1  0  0  0  0
 11 12  1  0  0  0  0
 12 13  1  0  0  0  0
 12 16  1  0  0  0  0
 13 14  2  0  0  0  0
 14 15  1  0  0  0  0
 15 16  2  0  0  0  0
 17 18  2  0  0  0  0
 17 22  1  0  0  0  0
 18 19  1  0  0  0  0
 19 20  2  0  0  0  0
 20 21  1  0  0  0  0
 21 22  2  0  0  0  0
 21 23  1  0  0  0  0
 23 24  2  0  0  0  0
 23 25  1  0  0  0  0
 26 27  2  0  0  0  0
 27 28  1  0  0  0  0
 28 29  1  0  0  0  0
M  END
>  <COMPND>
    /Users/00mac/Documents/LamNet/model/LamNet/data/rbfe/syk-nnp/CHEMBL3265005/CHEMBL3265005.pdb 

>  <AUTHOR>
    GENERATED BY OPEN BABEL 3.1.0

>  <MASTER>
        0    0    0    0    0    0    0    0   29    0   29    0

$$$$
