REMARK  Name = G1_out.pdbqt
REMARK  4 active torsions:
REMARK  status: ('A' for Active; 'I' for Inactive)
REMARK    1  A    between atoms: C2_2  and  C3_3
REMARK    2  A    between atoms: C3_3  and  C4_4
REMARK    3  A    between atoms: C4_4  and  C5_5
REMARK    4  A    between atoms: C5_5  and  C6_6
REMARK                            x       y       z     vdW  Elec       q    Type
REMARK                         _______ _______ _______ _____ _____    ______ ____
ROOT
ATOM      1  C4  MOL d   1      -0.422  -1.292  -2.454  0.00  0.00    +0.022 C 
ENDROOT
BRANCH   1   2
ATOM      2  C3  MOL d   1       0.781  -0.720  -1.674  0.00  0.00    +0.093 C 
BRANCH   2   4
ATOM      3  C1  MOL d   1      -0.173   0.029   0.708  0.00  0.00    +0.012 C 
ATOM      4  C2  MOL d   1       0.252  -0.304  -0.354  0.00  0.00    -0.117 C 
ENDBRANCH   2   4
ENDBRANCH   1   2
BRANCH   1   5
ATOM      5  C5  MOL d   1      -0.656  -0.397  -3.690  0.00  0.00    +0.114 C 
BRANCH   5   6
ATOM      6  C6  MOL d   1      -1.013   1.044  -3.360  0.00  0.00    +0.172 C 
ATOM      7  O1  MOL d   1      -0.257   1.927  -3.818  0.00  0.00    -0.648 OA
ATOM      8  O2  MOL d   1      -2.030   1.227  -2.662  0.00  0.00    -0.648 OA
ENDBRANCH   5   6
ENDBRANCH   1   5
TORSDOF 4
