/inspire/ssd/ws-f4d69b29-e0a5-44e6-bd92-acf4de9990f0/public-project/hurenling-241310070200/LamNet/model/LamNet/data/rbfe/syk-nnp/CHEMBL3265031/CHEMBL3265031.pdb
 OpenBabel01062511123D

 33 38  0  0  1  0  0  0  0  0999 V2000
   41.7300   26.4350   47.8840 C   0  0  0  0  0  0  0  0  0  0  0  0
   42.3200   27.8210   48.0380 C   0  0  1  0  0  0  0  0  0  0  0  0
   41.2700   28.7680   48.1510 O   0  0  0  0  0  0  0  0  0  0  0  0
   43.1740   27.9100   49.3140 C   0  0  0  0  0  0  0  0  0  0  0  0
   43.8990   29.2420   49.4420 C   0  0  0  0  0  0  0  0  0  0  0  0
   44.7100   29.5930   48.2610 N   0  0  0  0  0  0  0  0  0  0  0  0
   43.9380   29.5480   47.0080 C   0  0  0  0  0  0  0  0  0  0  0  0
   43.2020   28.2070   46.8340 C   0  0  0  0  0  0  0  0  0  0  0  0
   46.0620   29.8340   48.3330 C   0  0  0  0  0  0  0  0  0  0  0  0
   46.6590   30.8460   47.5660 C   0  0  0  0  0  0  0  0  0  0  0  0
   48.0270   31.1180   47.7090 C   0  0  0  0  0  0  0  0  0  0  0  0
   48.7990   30.3490   48.6000 C   0  0  0  0  0  0  0  0  0  0  0  0
   50.1810   30.5650   48.8300 N   0  0  0  0  0  0  0  0  0  0  0  0
   51.1090   31.4870   48.2730 C   0  0  0  0  0  0  0  0  0  0  0  0
   50.7480   32.3140   47.2450 N   0  0  0  0  0  0  0  0  0  0  0  0
   51.6840   33.1710   46.7290 C   0  0  0  0  0  0  0  0  0  0  0  0
   52.9910   33.2120   47.2090 C   0  0  0  0  0  0  0  0  0  0  0  0
   53.3190   32.4190   48.2670 N   0  0  0  0  0  0  0  0  0  0  0  0
   54.4730   32.3080   48.9950 C   0  0  0  0  0  0  0  0  0  0  0  0
   54.1650   31.4010   50.0360 C   0  0  0  0  0  0  0  0  0  0  0  0
   52.9520   30.8870   49.8820 N   0  0  0  0  0  0  0  0  0  0  0  0
   52.4110   31.5360   48.8360 C   0  0  0  0  0  0  0  0  0  0  0  0
   51.2100   34.0930   45.6310 C   0  0  0  0  0  0  0  0  0  0  0  0
   52.1200   34.5710   44.6710 C   0  0  0  0  0  0  0  0  0  0  0  0
   51.7240   35.3930   43.6180 C   0  0  0  0  0  0  0  0  0  0  0  0
   50.3800   35.7500   43.5250 C   0  0  0  0  0  0  0  0  0  0  0  0
   49.5710   36.5280   42.6270 C   0  0  0  0  0  0  0  0  0  0  0  0
   48.3310   36.5410   43.0240 N   0  0  0  0  0  0  0  0  0  0  0  0
   48.2420   35.8270   44.1390 N   0  0  0  0  0  0  0  0  0  0  0  0
   49.4620   35.2940   44.5060 C   0  0  0  0  0  0  0  0  0  0  0  0
   49.8480   34.4720   45.5730 C   0  0  0  0  0  0  0  0  0  0  0  0
   48.1870   29.3250   49.3260 C   0  0  0  0  0  0  0  0  0  0  0  0
   46.8380   29.0810   49.2000 C   0  0  0  0  0  0  0  0  0  0  0  0
  2  1  1  6  0  0  0
  2  3  1  0  0  0  0
  2  4  1  0  0  0  0
  2  8  1  0  0  0  0
  4  5  1  0  0  0  0
  5  6  1  0  0  0  0
  6  7  1  0  0  0  0
  6  9  1  0  0  0  0
  7  8  1  0  0  0  0
  9 10  2  0  0  0  0
  9 33  1  0  0  0  0
 10 11  1  0  0  0  0
 11 12  2  0  0  0  0
 12 13  1  0  0  0  0
 12 32  1  0  0  0  0
 13 14  1  0  0  0  0
 14 15  2  0  0  0  0
 14 22  1  0  0  0  0
 15 16  1  0  0  0  0
 16 17  2  0  0  0  0
 16 23  1  0  0  0  0
 17 18  1  0  0  0  0
 18 19  1  0  0  0  0
 18 22  1  0  0  0  0
 19 20  2  0  0  0  0
 20 21  1  0  0  0  0
 21 22  2  0  0  0  0
 23 24  2  0  0  0  0
 23 31  1  0  0  0  0
 24 25  1  0  0  0  0
 25 26  2  0  0  0  0
 26 27  1  0  0  0  0
 26 30  1  0  0  0  0
 27 28  2  0  0  0  0
 28 29  1  0  0  0  0
 29 30  2  0  0  0  0
 30 31  1  0  0  0  0
 32 33  2  0  0  0  0
M  END
>  <COMPND>
    /Users/00mac/Documents/LamNet/model/LamNet/data/rbfe/syk-nnp/CHEMBL3265031/CHEMBL3265031.pdb 

>  <AUTHOR>
    GENERATED BY OPEN BABEL 3.1.0

>  <MASTER>
        0    0    0    0    0    0    0    0   33    0   33    0

$$$$
