REMARK  Name = G4_out.pdbqt
REMARK  5 active torsions:
REMARK  status: ('A' for Active; 'I' for Inactive)
REMARK    1  A    between atoms: C9_1  and  C7_2
REMARK    2  A    between atoms: C9_1  and  C10_7
REMARK    3  A    between atoms: C7_2  and  C1_3
REMARK    4  A    between atoms: C10_7  and  C8_9
REMARK    5  A    between atoms: C8_9  and  C3_10
REMARK                            x       y       z     vdW  Elec       q    Type
REMARK                         _______ _______ _______ _____ _____    ______ ____
ROOT
ATOM      1  C9  OA- d   1       0.908  -0.894  -1.827  0.00  0.00    +0.008 C 
ENDROOT
BRANCH   1   2
ATOM      2  C10 OA- d   1       1.081   0.250  -0.805  0.00  0.00    -0.008 C 
ATOM      3  C6  OA- d   1      -0.012   0.221   0.268  0.00  0.00    +0.010 C 
BRANCH   2   4
ATOM      4  C8  OA- d   1       1.060   1.613  -1.516  0.00  0.00    +0.117 C 
BRANCH   4   5
ATOM      5  C3  OA- d   1       1.773   1.684  -2.873  0.00  0.00    +0.172 C 
ATOM      6  O1  OA- d   1       1.130   2.305  -3.767  0.00  0.00    -0.648 OA
ATOM      7  O2  OA- d   1       2.893   1.107  -2.945  0.00  0.00    -0.648 OA
ENDBRANCH   4   5
ENDBRANCH   2   4
ENDBRANCH   1   2
BRANCH   1   8
ATOM      8  C7  OA- d   1      -0.552  -1.147  -2.215  0.00  0.00    +0.028 C 
BRANCH   8   9
ATOM      9  C1  OA- d   1      -0.749  -1.015  -3.699  0.00  0.00    -0.025 C 
ATOM     10  C2  OA- d   1      -1.369  -0.020  -4.361  0.00  0.00    -0.091 C 
ATOM     11  C4  OA- d   1      -1.533   0.054  -5.852  0.00  0.00    +0.042 C 
ATOM     12  C5  OA- d   1      -1.979   1.132  -3.609  0.00  0.00    +0.042 C 
ENDBRANCH   8   9
ENDBRANCH   1   8
TORSDOF 5
