/inspire/ssd/ws-f4d69b29-e0a5-44e6-bd92-acf4de9990f0/public-project/hurenling-241310070200/LamNet/model/LamNet/data/rbfe/syk-nnp/CHEMBL3265021/CHEMBL3265021.pdb
 OpenBabel01062511123D

 29 33  0  0  0  0  0  0  0  0999 V2000
   44.3320   28.8430   47.0670 C   0  0  0  0  0  0  0  0  0  0  0  0
   44.7130   29.5870   48.2140 O   0  0  0  0  0  0  0  0  0  0  0  0
   46.0620   29.8340   48.3180 C   0  0  0  0  0  0  0  0  0  0  0  0
   46.8390   29.0740   49.1850 C   0  0  0  0  0  0  0  0  0  0  0  0
   48.1940   29.3320   49.3200 C   0  0  0  0  0  0  0  0  0  0  0  0
   48.8080   30.3560   48.5940 C   0  0  0  0  0  0  0  0  0  0  0  0
   50.1920   30.5780   48.8310 N   0  0  0  0  0  0  0  0  0  0  0  0
   51.1280   31.4900   48.2700 C   0  0  0  0  0  0  0  0  0  0  0  0
   50.7770   32.3070   47.2320 N   0  0  0  0  0  0  0  0  0  0  0  0
   51.7130   33.1730   46.7290 C   0  0  0  0  0  0  0  0  0  0  0  0
   53.0160   33.2170   47.2180 C   0  0  0  0  0  0  0  0  0  0  0  0
   53.3390   32.4210   48.2760 N   0  0  0  0  0  0  0  0  0  0  0  0
   54.4880   32.3070   49.0050 C   0  0  0  0  0  0  0  0  0  0  0  0
   54.1730   31.4100   50.0480 C   0  0  0  0  0  0  0  0  0  0  0  0
   52.9620   30.8920   49.8900 N   0  0  0  0  0  0  0  0  0  0  0  0
   52.4260   31.5420   48.8400 C   0  0  0  0  0  0  0  0  0  0  0  0
   51.2430   34.0960   45.6270 C   0  0  0  0  0  0  0  0  0  0  0  0
   52.1520   34.5720   44.6710 C   0  0  0  0  0  0  0  0  0  0  0  0
   51.7620   35.3990   43.6080 C   0  0  0  0  0  0  0  0  0  0  0  0
   50.4140   35.7370   43.5380 C   0  0  0  0  0  0  0  0  0  0  0  0
   49.7000   36.4980   42.6360 N   0  0  0  0  0  0  0  0  0  0  0  0
   48.4090   36.5690   42.9570 N   0  0  0  0  0  0  0  0  0  0  0  0
   48.2300   35.8860   44.0610 C   0  0  0  0  0  0  0  0  0  0  0  0
   49.4730   35.3010   44.4980 C   0  0  0  0  0  0  0  0  0  0  0  0
   49.8900   34.4830   45.5590 C   0  0  0  0  0  0  0  0  0  0  0  0
   48.0360   31.1220   47.6960 C   0  0  0  0  0  0  0  0  0  0  0  0
   46.6460   30.8540   47.5630 C   0  0  0  0  0  0  0  0  0  0  0  0
   45.8400   31.5870   46.7040 O   0  0  0  0  0  0  0  0  0  0  0  0
   46.3640   32.5860   45.8510 C   0  0  0  0  0  0  0  0  0  0  0  0
  1  2  1  0  0  0  0
  2  3  1  0  0  0  0
  3  4  2  0  0  0  0
  3 27  1  0  0  0  0
  4  5  1  0  0  0  0
  5  6  2  0  0  0  0
  6  7  1  0  0  0  0
  6 26  1  0  0  0  0
  7  8  1  0  0  0  0
  8  9  2  0  0  0  0
  8 16  1  0  0  0  0
  9 10  1  0  0  0  0
 10 11  2  0  0  0  0
 10 17  1  0  0  0  0
 11 12  1  0  0  0  0
 12 13  1  0  0  0  0
 12 16  1  0  0  0  0
 13 14  2  0  0  0  0
 14 15  1  0  0  0  0
 15 16  2  0  0  0  0
 17 18  2  0  0  0  0
 17 25  1  0  0  0  0
 18 19  1  0  0  0  0
 19 20  2  0  0  0  0
 20 21  1  0  0  0  0
 20 24  1  0  0  0  0
 21 22  2  0  0  0  0
 22 23  1  0  0  0  0
 23 24  2  0  0  0  0
 24 25  1  0  0  0  0
 26 27  2  0  0  0  0
 27 28  1  0  0  0  0
 28 29  1  0  0  0  0
M  END
>  <COMPND>
    /Users/00mac/Documents/LamNet/model/LamNet/data/rbfe/syk-nnp/CHEMBL3265021/CHEMBL3265021.pdb 

>  <AUTHOR>
    GENERATED BY OPEN BABEL 3.1.0

>  <MASTER>
        0    0    0    0    0    0    0    0   29    0   29    0

$$$$
