REMARK  Name = G3_out.pdbqt
REMARK  2 active torsions:
REMARK  status: ('A' for Active; 'I' for Inactive)
REMARK    1  A    between atoms: C6_6  and  O2_21
REMARK    2  A    between atoms: C13_13  and  O3_23
REMARK                            x       y       z     vdW  Elec       q    Type
REMARK                         _______ _______ _______ _____ _____    ______ ____
ROOT
ATOM      1  C1  UNL d   1      11.392  39.103  27.627  0.00  0.00    +0.011 C 
ATOM      2  C2  UNL d   1      10.395  39.108  26.631  0.00  0.00    +0.040 C 
ATOM      3  C3  UNL d   1      11.036  39.056  28.977  0.00  0.00    -0.046 C 
ATOM      4  C4  UNL d   1       9.686  39.052  29.274  0.00  0.00    -0.003 C 
ATOM      5  C5  UNL d   1       8.712  38.974  28.303  0.00  0.00    +0.110 C 
ATOM      6  C6  UNL d   1       9.037  39.027  26.966  0.00  0.00    +0.099 C 
ATOM      7  C7  UNL d   1       9.958  36.720  31.169  0.00  0.00    -0.020 C 
ATOM      8  C8  UNL d   1       8.861  36.150  30.651  0.00  0.00    +0.003 C 
ATOM      9  C9  UNL d   1      12.031  38.892  30.096  0.00  0.00    +0.073 C 
ATOM     10  C10 UNL d   1       8.961  40.458  31.191  0.00  0.00    +0.045 C 
ATOM     11  C11 UNL d   1      10.311  41.138  31.422  0.00  0.00    +0.236 C 
ATOM     12  C12 UNL d   1       9.979  38.177  31.553  0.00  0.00    +0.055 C 
ATOM     13  C13 UNL d   1       7.574  36.900  30.451  0.00  0.00    +0.171 C 
ATOM     14  C14 UNL d   1      11.396  38.815  31.517  0.00  0.00    +0.200 C 
ATOM     15  C15 UNL d   1       7.707  38.431  30.237  0.00  0.00    +0.175 C 
ATOM     16  C16 UNL d   1       9.080  39.023  30.637  0.00  0.00    +0.030 C 
ATOM     17  C17 UNL d   1      12.565  40.873  32.473  0.00  0.00    +0.270 C 
ATOM     18  N1  UNL d   1      11.253  40.210  32.150  0.00  0.00    -0.070 N 
ATOM     19  O1  UNL d   1       7.463  38.783  28.831  0.00  0.00    -0.338 OA
ATOM     20  H18 UNL d   1      10.819  40.042  33.068  0.00  0.00    +0.279 HD
ENDROOT
BRANCH   6  21
ATOM     21  O2  UNL d   1       8.087  38.969  26.000  0.00  0.00    -0.358 OA
ATOM     22  H19 UNL d   1       7.315  38.467  26.310  0.00  0.00    +0.217 HD
ENDBRANCH   6  21
BRANCH  13  23
ATOM     23  O3  UNL d   1       6.848  36.300  29.382  0.00  0.00    -0.389 OA
ATOM     24  H20 UNL d   1       6.794  36.965  28.678  0.00  0.00    +0.210 HD
ENDBRANCH  13  23
TORSDOF 2
