REMARK  Name = G2_out.pdbqt
REMARK  5 active torsions:
REMARK  status: ('A' for Active; 'I' for Inactive)
REMARK    1  A    between atoms: C2_1  and  C1_2
REMARK    2  A    between atoms: C2_1  and  C3_7
REMARK    3  A    between atoms: C1_2  and  N2_3
REMARK    4  A    between atoms: C3_7  and  C4_8
REMARK    5  A    between atoms: C4_8  and  N1_9
REMARK                            x       y       z     vdW  Elec       q    Type
REMARK                         _______ _______ _______ _____ _____    ______ ____
ROOT
ATOM      1  C2  MOL d   1       0.078  -0.165  -2.272  0.00  0.00    +0.029 C 
ENDROOT
BRANCH   1   2
ATOM      2  C1  MOL d   1       0.404  -0.892  -0.956  0.00  0.00    +0.229 C 
BRANCH   2   3
ATOM      3  N2  MOL d   1       0.809  -2.292  -1.208  0.00  0.00    -0.079 N 
ATOM      4  H12 MOL d   1       0.359  -2.630  -2.058  0.00  0.00    +0.274 HD
ATOM      5  H13 MOL d   1       0.554  -2.882  -0.416  0.00  0.00    +0.274 HD
ATOM      6  H14 MOL d   1       1.822  -2.333  -1.326  0.00  0.00    +0.274 HD
ENDBRANCH   2   3
ENDBRANCH   1   2
BRANCH   1   7
ATOM      7  C3  MOL d   1      -0.233   1.332  -2.049  0.00  0.00    +0.029 C 
BRANCH   7   8
ATOM      8  C4  MOL d   1      -0.173   1.721  -0.562  0.00  0.00    +0.229 C 
BRANCH   8   9
ATOM      9  N1  MOL d   1      -1.052   2.877  -0.279  0.00  0.00    -0.079 N 
ATOM     10  H9  MOL d   1      -0.502   3.736  -0.298  0.00  0.00    +0.274 HD
ATOM     11  H10 MOL d   1      -1.502   2.765   0.630  0.00  0.00    +0.274 HD
ATOM     12  H11 MOL d   1      -1.779   2.929  -0.994  0.00  0.00    +0.274 HD
ENDBRANCH   8   9
ENDBRANCH   7   8
ENDBRANCH   1   7
TORSDOF 5
